@<TRIPOS>MOLECULE
XAP
18781 15713  3079     0     1 
SMALL
USER_CHARGES
@<TRIPOS>ATOM
  1 O1     13.741530   -6.576490   -1.830971 O     1 XAP    -0.5795 ****
  2 H1     14.243711   -7.169141   -2.446325 H     1 XAP     0.4237 ****
  3 C2     13.627161   -7.191816   -0.590965 C     1 XAP     0.6227 ****
  4 O8     13.032663   -6.622700    0.331193 O     1 XAP    -0.4863 ****
  5 C3     14.226097   -8.546199   -0.372031 C     1 XAP    -0.1745 ****
  6 H2     13.684736   -9.273473   -0.993160 H     1 XAP     0.0736 ****
  7 H3     15.266235   -8.538429   -0.726788 H     1 XAP     0.0736 ****
  8 C4     14.140475   -8.940182    1.105965 C     1 XAP    -0.0745 ****
  9 H4     14.693084   -8.210764    1.714548 H     1 XAP     0.0652 ****
 10 H5     13.086860   -8.959388    1.421444 H     1 XAP     0.0652 ****
 11 C5     14.753952  -10.332045    1.288682 C     1 XAP    -0.1585 ****
 12 H6     14.225738  -11.076634    0.676817 H     1 XAP     0.0746 ****
 13 H7     15.805133  -10.344697    0.964865 H     1 XAP     0.0746 ****
 14 C4     14.674176  -10.778440    2.743654 C     2 rAPP    0.6677 ****
 15 O6     15.103312  -11.866903    3.142134 O     2 rAPP   -0.6236 ****
 16 N5     14.097050   -9.897702    3.582071 N     2 rAPP   -0.5695 ****
 17 H8     13.764112   -9.040118    3.208238 H     2 rAPP    0.3203 ****
 18 C7     13.937473  -10.125502    5.025519 C     2 rAPP    0.0478 ****
 19 C10    15.231945  -10.586857    5.744611 C     2 rAPP   -0.0972 ****
 20 C11    16.348166   -9.542020    5.560318 C     2 rAPP   -0.0113 ****
 21 S12    17.850242  -10.115006    6.394090 S     2 rAPP   -0.3064 ****
 22 C13    17.557599  -10.282826    8.171356 C     2 rAPP   -0.0033 ****
 23 C14    18.838059  -10.798277    8.842891 C     2 rAPP   -0.1174 ****
 24 C15    18.578303  -10.916314   10.309394 C     2 rAPP    0.4096 ****
 25 C16    17.903039  -12.099085   10.840915 C     2 rAPP   -0.2427 ****
 26 C17    17.680788  -12.187763   12.146162 C     2 rAPP   -0.0898 ****
 27 C19    18.117808  -11.103740   13.011045 C     2 rAPP   -0.2487 ****
 28 C21    18.728975  -10.047408   12.477320 C     2 rAPP    0.4002 ****
 29 N23    18.950330   -9.980412   11.089457 N     2 rAPP   -0.6664 ****
 30 H21    19.050484   -9.253304   13.101524 H     2 rAPP    0.0222 ****
 31 H20    17.951706  -11.152297   14.056823 H     2 rAPP    0.1444 ****
 32 H19    17.191935  -13.036730   12.553593 H     2 rAPP    0.1393 ****
 33 H18    17.593124  -12.876539   10.188812 H     2 rAPP    0.1444 ****
 34 H16    19.057137  -11.787225    8.413957 H     2 rAPP    0.0684 ****
 35 H17    19.645479  -10.078512    8.654173 H     2 rAPP    0.0684 ****
 36 H14    17.288377   -9.304286    8.592996 H     2 rAPP    0.0719 ****
 37 H15    16.739303  -10.996263    8.348552 H     2 rAPP    0.0719 ****
 38 H12    16.552806   -9.418990    4.487570 H     2 rAPP    0.0729 ****
 39 H13    16.030212   -8.580394    5.986911 H     2 rAPP    0.0729 ****
 40 H10    15.020900  -10.712203    6.814823 H     2 rAPP    0.0789 ****
 41 H11    15.561767  -11.546049    5.326787 H     2 rAPP    0.0789 ****
 42 H9     13.582464   -9.172686    5.439904 H     2 rAPP    0.0859 ****
 43 C8     12.871222  -11.157730    5.263480 C     2 rAPP    0.6377 ****
 44 O9     13.130931  -12.156045    5.944372 O     2 rAPP   -0.6106 ****
 45 N25    11.644520  -10.979312    4.781536 N     2 rAPP   -0.5575 ****
 46 H22    11.434358  -10.168663    4.247935 H     2 rAPP    0.3443 ****
 47 C26    10.610296  -11.940776    5.068671 C     2 rAPP    0.0852 ****
 48 H23     9.989960  -12.107397    4.175687 H     2 rAPP    0.0739 ****
 49 H24    11.050770  -12.884198    5.417300 H     2 rAPP    0.0739 ****
 50 C27     9.718436  -11.349627    6.181804 C     2 rAPP    0.1127 ****
 51 H25    10.334287  -11.159397    7.071939 H     2 rAPP    0.0583 ****
 52 H26     9.280583  -10.404283    5.831929 H     2 rAPP    0.0583 ****
 53 O28     8.667874  -12.262234    6.523791 O     2 rAPP   -0.4388 ****
 54 C29     7.886280  -11.702170    7.539981 C     2 rAPP    0.6357 ****
 55 O31     8.159167  -10.580669    7.984882 O     2 rAPP   -0.5417 ****
 56 C30     6.720540  -12.460669    8.104542 C     2 rAPP   -0.1291 ****
 57 H27     6.060106  -12.767799    7.281560 H     2 rAPP    0.0834 ****
 58 H28     7.094033  -13.382474    8.572066 H     2 rAPP    0.0834 ****
 59 C32     5.966286  -11.601582    9.134878 C     2 rAPP   -0.0782 ****
 60 H29     6.647053  -11.325490    9.950926 H     2 rAPP    0.0624 ****
 61 H30     5.589517  -10.691464    8.647506 H     2 rAPP    0.0624 ****
 62 C33     4.786415  -12.403510    9.704184 C     2 rAPP   -0.1560 ****
 63 H31     4.095257  -12.707055    8.905458 H     2 rAPP    0.0754 ****
 64 H32     5.135536  -13.328499   10.186376 H     2 rAPP    0.0754 ****
 65 C4      4.000109  -11.577139   10.714832 C     3 rPPO    0.6677 ****
 66 O6      3.004988  -12.004417   11.310537 O     3 rPPO   -0.6236 ****
 67 N5      4.465399  -10.331159   10.921605 N     3 rPPO   -0.5695 ****
 68 H8      5.265171  -10.036418   10.412154 H     3 rPPO    0.3203 ****
 69 C7      3.864257   -9.379366   11.866919 C     3 rPPO    0.0478 ****
 70 C10     3.610424   -9.961246   13.282047 C     3 rPPO   -0.0972 ****
 71 C11     4.929860  -10.459119   13.900765 C     3 rPPO   -0.0113 ****
 72 S12     4.600363  -11.148296   15.542773 S     3 rPPO   -0.3064 ****
 73 C13     3.939383   -9.870658   16.639691 C     3 rPPO   -0.0033 ****
 74 C14     3.642704  -10.493038   18.011132 C     3 rPPO   -0.1174 ****
 75 C15     3.111440   -9.419054   18.903518 C     3 rPPO    0.4096 ****
 76 C16     1.698979   -9.046876   18.841201 C     3 rPPO   -0.2427 ****
 77 C17     1.243820   -8.091143   19.641408 C     3 rPPO   -0.0898 ****
 78 C19     2.165590   -7.441916   20.559536 C     3 rPPO   -0.2487 ****
 79 C21     3.443371   -7.817643   20.577706 C     3 rPPO    0.4002 ****
 80 N23     3.897848   -8.833567   19.716894 N     3 rPPO   -0.6664 ****
 81 H21     4.121229   -7.348986   21.244392 H     3 rPPO    0.0222 ****
 82 H20     1.825116   -6.676175   21.208626 H     3 rPPO    0.1444 ****
 83 H19     0.222659   -7.804560   19.612720 H     3 rPPO    0.1393 ****
 84 H18     1.046457   -9.535282   18.161939 H     3 rPPO    0.1444 ****
 85 H16     2.881965  -11.272843   17.858885 H     3 rPPO    0.0684 ****
 86 H17     4.576790  -10.901690   18.418675 H     3 rPPO    0.0684 ****
 87 H14     4.678651   -9.065315   16.752406 H     3 rPPO    0.0719 ****
 88 H15     3.011029   -9.459749   16.216237 H     3 rPPO    0.0719 ****
 89 H12     5.356640  -11.241431   13.257611 H     3 rPPO    0.0729 ****
 90 H13     5.639038   -9.623683   13.983911 H     3 rPPO    0.0729 ****
 91 H10     3.180365   -9.177057   13.918992 H     3 rPPO    0.0789 ****
 92 H11     2.904614  -10.798221   13.213391 H     3 rPPO    0.0789 ****
 93 H9      4.558159   -8.529834   11.915895 H     3 rPPO    0.0859 ****
 94 C8      2.557194   -8.876379   11.321393 C     3 rPPO    0.6377 ****
 95 O9      1.532890   -8.975283   12.006021 O     3 rPPO   -0.6106 ****
 96 N25     2.508574   -8.290246   10.128503 N     3 rPPO   -0.5575 ****
 97 H22     3.335900   -8.198051    9.587134 H     3 rPPO    0.3443 ****
 98 C26     1.264369   -7.751920    9.639996 C     3 rPPO    0.0852 ****
 99 H23     1.155682   -7.964468    8.566213 H     3 rPPO    0.0739 ****
100 H24     0.419532   -8.166595   10.205593 H     3 rPPO    0.0739 ****
101 C27     1.308963   -6.220885    9.834626 C     3 rPPO    0.1127 ****
102 H25     1.439146   -5.998621   10.903013 H     3 rPPO    0.0583 ****
103 H26     2.156596   -5.808093    9.269895 H     3 rPPO    0.0583 ****
104 O28     0.092794   -5.618710    9.374401 O     3 rPPO   -0.4388 ****
105 C29     0.161312   -4.235743    9.574176 C     3 rPPO    0.6357 ****
106 O31     1.174400   -3.731192   10.073426 O     3 rPPO   -0.5417 ****
107 C30    -0.995435   -3.357275    9.195718 C     3 rPPO   -0.1291 ****
108 H27    -1.262752   -3.548388    8.146996 H     3 rPPO    0.0834 ****
109 H28    -1.866624   -3.642534    9.801901 H     3 rPPO    0.0834 ****
110 C32    -0.644016   -1.876022    9.421362 C     3 rPPO   -0.0782 ****
111 H29    -0.398513   -1.714311   10.479276 H     3 rPPO    0.0624 ****
112 H30     0.220142   -1.605483    8.798593 H     3 rPPO    0.0624 ****
113 C33    -1.846216   -1.000584    9.037148 C     3 rPPO   -0.1560 ****
114 H31    -2.124274   -1.154037    7.985037 H     3 rPPO    0.0754 ****
115 H32    -2.730452   -1.261075    9.637373 H     3 rPPO    0.0754 ****
116 C4     -1.529234    0.477967    9.226847 C     4 rPOO    0.6669 ****
117 O6     -2.339174    1.380897    8.984190 O     4 rPOO   -0.6224 ****
118 N5     -0.296697    0.743121    9.680880 N     4 rPOO   -0.5703 ****
119 H8      0.316867   -0.017757    9.861546 H     4 rPOO    0.3224 ****
120 C7      0.184951    2.095886    9.915545 C     4 rPOO    0.0508 ****
121 C8     -0.629026    2.739433   11.073697 C     4 rPOO   -0.0862 ****
122 C9     -0.111271    4.164045   11.372756 C     4 rPOO   -0.0143 ****
123 S10    -1.064071    4.870210   12.732137 S     4 rPOO   -0.2974 ****
124 C11    -0.449121    6.532845   13.072002 C     4 rPOO   -0.0143 ****
125 C26    -1.251491    7.150128   14.225861 C     4 rPOO   -0.1171 ****
126 C27    -0.754182    8.528890   14.530342 C     4 rPOO    0.6319 ****
127 O28     0.266275    8.951973   13.973713 O     4 rPOO   -0.5375 ****
128 O29    -1.441839    9.329299   15.436628 O     4 rPOO   -0.4387 ****
129 C30    -0.784017   10.590670   15.560720 C     4 rPOO    0.1260 ****
130 H31    -1.330525   11.220602   16.276482 H     4 rPOO    0.0518 ****
131 H32    -0.757351   11.088351   14.578985 H     4 rPOO    0.0518 ****
132 H33     0.242993   10.434387   15.919366 H     4 rPOO    0.0518 ****
133 H29    -2.323594    7.201633   13.989761 H     4 rPOO    0.0940 ****
134 H30    -1.154307    6.534588   15.132319 H     4 rPOO    0.0940 ****
135 H14     0.613614    6.480240   13.350978 H     4 rPOO    0.0784 ****
136 H15    -0.561271    7.156344   12.172741 H     4 rPOO    0.0784 ****
137 H12     0.948593    4.115676   11.655513 H     4 rPOO    0.0709 ****
138 H13    -0.225540    4.801185   10.484613 H     4 rPOO    0.0709 ****
139 H10    -1.691238    2.785783   10.799540 H     4 rPOO    0.0799 ****
140 H11    -0.510664    2.124037   11.976514 H     4 rPOO    0.0799 ****
141 H9      1.250404    2.021216   10.170178 H     4 rPOO    0.0869 ****
142 C12     0.025210    2.886942    8.642847 C     4 rPOO    0.6389 ****
143 O13    -0.979655    3.584128    8.457517 O     4 rPOO   -0.6144 ****
144 N14     0.965697    2.825370    7.711547 N     4 rPOO   -0.5593 ****
145 H16     1.771846    2.263622    7.855114 H     4 rPOO    0.3455 ****
146 C15     0.813547    3.566446    6.502774 C     4 rPOO    0.0852 ****
147 H17    -0.133356    3.280181    6.021705 H     4 rPOO    0.0734 ****
148 H18     0.767661    4.638185    6.741672 H     4 rPOO    0.0734 ****
149 C16     1.993287    3.283141    5.567373 C     4 rPOO    0.1147 ****
150 H19     2.930036    3.579594    6.059733 H     4 rPOO    0.0579 ****
151 H20     2.024254    2.208735    5.333507 H     4 rPOO    0.0579 ****
152 O17     1.829099    4.028661    4.361732 O     4 rPOO   -0.4387 ****
153 C18     2.895610    3.776015    3.508476 C     4 rPOO    0.6369 ****
154 O19     3.796703    3.000805    3.847264 O     4 rPOO   -0.5415 ****
155 C20     2.950861    4.442051    2.171177 C     4 rPOO   -0.1290 ****
156 H21     1.954944    4.812240    1.890268 H     4 rPOO    0.0839 ****
157 H22     3.646882    5.291883    2.228965 H     4 rPOO    0.0839 ****
158 C21     3.509159    3.462984    1.134987 C     4 rPOO   -0.0782 ****
159 H23     4.514041    3.138613    1.439611 H     4 rPOO    0.0629 ****
160 H24     2.848492    2.587825    1.061386 H     4 rPOO    0.0629 ****
161 C22     3.589845    4.164082   -0.224783 C     4 rPOO   -0.1560 ****
162 H25     2.594824    4.506933   -0.541307 H     4 rPOO    0.0754 ****
163 H26     4.231776    5.056001   -0.175736 H     4 rPOO    0.0754 ****
164 C4      4.129424    3.222453   -1.294720 C     5 rOOO    0.6669 ****
165 O6      4.286679    3.557484   -2.475056 O     5 rOOO   -0.6224 ****
166 N5      4.428005    1.987373   -0.869247 N     5 rOOO   -0.5703 ****
167 H8      4.284428    1.767560    0.089453 H     5 rOOO    0.3224 ****
168 C7      4.947619    0.952265   -1.749916 C     5 rOOO    0.0508 ****
169 C8      6.357903    1.366871   -2.257091 C     5 rOOO   -0.0862 ****
170 C9      6.952476    0.265920   -3.163410 C     5 rOOO   -0.0143 ****
171 S10     8.593628    0.771923   -3.715677 S     5 rOOO   -0.2974 ****
172 C11     9.277103   -0.522312   -4.772012 C     5 rOOO   -0.0143 ****
173 C26    10.674063   -0.106418   -5.253424 C     5 rOOO   -0.1171 ****
174 C27    11.264360   -1.168956   -6.127250 C     5 rOOO    0.6319 ****
175 O28    10.686474   -2.255700   -6.250556 O     5 rOOO   -0.5375 ****
176 O29    12.459254   -0.929937   -6.798056 O     5 rOOO   -0.4387 ****
177 C30    12.819495   -2.079746   -7.564443 C     5 rOOO    0.1260 ****
178 H31    13.763141   -1.886937   -8.093742 H     5 rOOO    0.0518 ****
179 H32    12.025575   -2.296214   -8.295904 H     5 rOOO    0.0518 ****
180 H33    12.944344   -2.941974   -6.894536 H     5 rOOO    0.0518 ****
181 H29    10.643346    0.839107   -5.812744 H     5 rOOO    0.0940 ****
182 H30    11.343298    0.052990   -4.395103 H     5 rOOO    0.0940 ****
183 H14     9.349619   -1.460125   -4.201706 H     5 rOOO    0.0784 ****
184 H15     8.619384   -0.672002   -5.640919 H     5 rOOO    0.0784 ****
185 H12     7.030229   -0.671291   -2.596669 H     5 rOOO    0.0709 ****
186 H13     6.309435    0.111809   -4.041219 H     5 rOOO    0.0709 ****
187 H10     6.288111    2.306841   -2.820287 H     5 rOOO    0.0799 ****
188 H11     7.020214    1.507317   -1.391401 H     5 rOOO    0.0799 ****
189 H9      4.990501    0.022413   -1.167559 H     5 rOOO    0.0869 ****
190 C12     3.991427    0.781620   -2.902143 C     5 rOOO    0.6389 ****
191 O13     4.177845    1.380678   -3.968232 O     5 rOOO   -0.6144 ****
192 N14     2.937164   -0.009361   -2.766117 N     5 rOOO   -0.5593 ****
193 H16     2.782096   -0.488739   -1.910430 H     5 rOOO    0.3455 ****
194 C15     2.026210   -0.166528   -3.851906 C     5 rOOO    0.0852 ****
195 H17     1.648693    0.822368   -4.151183 H     5 rOOO    0.0734 ****
196 H18     2.559034   -0.604575   -4.707485 H     5 rOOO    0.0734 ****
197 C16     0.866389   -1.074237   -3.430125 C     5 rOOO    0.1147 ****
198 H19     1.259116   -2.058827   -3.140040 H     5 rOOO    0.0579 ****
199 H20     0.340059   -0.621768   -2.576750 H     5 rOOO    0.0579 ****
200 O17    -0.038361   -1.222650   -4.523619 O     5 rOOO   -0.4387 ****
201 C18    -1.093116   -2.044560   -4.147749 C     5 rOOO    0.6369 ****
202 O19    -1.138942   -2.520327   -3.007907 O     5 rOOO   -0.5415 ****
203 C20    -2.181044   -2.351161   -5.126235 C     5 rOOO   -0.1290 ****
204 H21    -2.177814   -1.613295   -5.940695 H     5 rOOO    0.0839 ****
205 H22    -2.004773   -3.351923   -5.547427 H     5 rOOO    0.0839 ****
206 C21    -3.527179   -2.391779   -4.398065 C     5 rOOO   -0.0782 ****
207 H23    -3.496676   -3.158544   -3.611336 H     5 rOOO    0.0629 ****
208 H24    -3.731353   -1.411129   -3.945915 H     5 rOOO    0.0629 ****
209 C22    -4.630796   -2.736044   -5.403319 C     5 rOOO   -0.1560 ****
210 H25    -4.669031   -1.985949   -6.205626 H     5 rOOO    0.0754 ****
211 H26    -4.442049   -3.706604   -5.885386 H     5 rOOO    0.0754 ****
212 C4     -5.995281   -2.775455   -4.725672 C     6 rOOO    0.6669 ****
213 O6     -7.044145   -3.031889   -5.329240 O     6 rOOO   -0.6224 ****
214 N5     -5.987397   -2.510289   -3.412194 N     6 rOOO   -0.5703 ****
215 H8     -5.118242   -2.310856   -2.973068 H     6 rOOO    0.3224 ****
216 C7     -7.195670   -2.495758   -2.601706 C     6 rOOO    0.0508 ****
217 C8     -7.793944   -3.929825   -2.542166 C     6 rOOO   -0.0862 ****
218 C9     -9.057318   -3.952796   -1.653132 C     6 rOOO   -0.0143 ****
219 S10    -9.711087   -5.633040   -1.591628 S     6 rOOO   -0.2974 ****
220 C11   -11.185083   -5.646404   -0.549907 C     6 rOOO   -0.0143 ****
221 C26   -11.756417   -7.069795   -0.488579 C     6 rOOO   -0.1171 ****
222 C27   -12.977626   -7.106762    0.376460 C     6 rOOO    0.6319 ****
223 O28   -13.301647   -6.105696    1.026880 O     6 rOOO   -0.5375 ****
224 O29   -13.743881   -8.265680    0.444601 O     6 rOOO   -0.4387 ****
225 C30   -14.849614   -8.060729    1.324677 C     6 rOOO    0.1260 ****
226 H31   -15.453187   -8.977762    1.375185 H     6 rOOO    0.0518 ****
227 H32   -15.469870   -7.232982    0.947426 H     6 rOOO    0.0518 ****
228 H33   -14.477574   -7.810855    2.328146 H     6 rOOO    0.0518 ****
229 H29   -12.016257   -7.443883   -1.488750 H     6 rOOO    0.0940 ****
230 H30   -11.011395   -7.764006   -0.072631 H     6 rOOO    0.0940 ****
231 H14   -10.919648   -5.313516    0.464356 H     6 rOOO    0.0784 ****
232 H15   -11.939317   -4.966520   -0.972857 H     6 rOOO    0.0784 ****
233 H12    -8.795956   -3.624772   -0.638393 H     6 rOOO    0.0709 ****
234 H13    -9.823646   -3.283884   -2.069184 H     6 rOOO    0.0709 ****
235 H10    -8.052505   -4.266303   -3.554852 H     6 rOOO    0.0799 ****
236 H11    -7.046096   -4.609665   -2.110493 H     6 rOOO    0.0799 ****
237 H9     -6.911689   -2.140126   -1.602464 H     6 rOOO    0.0869 ****
238 C12    -8.174092   -1.531102   -3.220720 C     6 rOOO    0.6389 ****
239 O13    -9.046032   -1.933274   -4.000558 O     6 rOOO   -0.6144 ****
240 N14    -8.091094   -0.240241   -2.933641 N     6 rOOO   -0.5593 ****
241 H16    -7.389930    0.086800   -2.311176 H     6 rOOO    0.3455 ****
242 C15    -9.010440    0.676064   -3.524118 C     6 rOOO    0.0852 ****
243 H17    -8.954598    0.586820   -4.619069 H     6 rOOO    0.0734 ****
244 H18   -10.030460    0.414744   -3.209363 H     6 rOOO    0.0734 ****
245 C16    -8.672243    2.105258   -3.088167 C     6 rOOO    0.1147 ****
246 H19    -8.738102    2.179211   -1.993638 H     6 rOOO    0.0579 ****
247 H20    -7.651359    2.354453   -3.413278 H     6 rOOO    0.0579 ****
248 O17    -9.597463    3.012349   -3.686066 O     6 rOOO   -0.4387 ****
249 C18    -9.296191    4.310709   -3.295148 C     6 rOOO    0.6369 ****
250 O19    -8.343440    4.530362   -2.539029 O     6 rOOO   -0.5415 ****
251 C20   -10.126369    5.448734   -3.795877 C     6 rOOO   -0.1290 ****
252 H21   -10.691129    5.142775   -4.687637 H     6 rOOO    0.0839 ****
253 H22   -10.833445    5.743516   -3.006480 H     6 rOOO    0.0839 ****
254 C21    -9.225326    6.654255   -4.076591 C     6 rOOO   -0.0782 ****
255 H23    -8.700468    6.943459   -3.155350 H     6 rOOO    0.0629 ****
256 H24    -8.489951    6.392524   -4.850233 H     6 rOOO    0.0629 ****
257 C22   -10.088730    7.823698   -4.560285 C     6 rOOO   -0.1560 ****
258 H25   -10.631690    7.549210   -5.475518 H     6 rOOO    0.0754 ****
259 H26   -10.847017    8.095640   -3.811253 H     6 rOOO    0.0754 ****
260 C4     -9.232082    9.046535   -4.865901 C     7 rOOO    0.6669 ****
261 O6     -9.700173   10.117104   -5.272031 O     7 rOOO   -0.6224 ****
262 N5     -7.917153    8.886477   -4.663554 N     7 rOOO   -0.5703 ****
263 H8     -7.590627    8.006772   -4.335626 H     7 rOOO    0.3224 ****
264 C7     -6.945773    9.941744   -4.908211 C     7 rOOO    0.0508 ****
265 C8     -7.190466   11.109257   -3.910683 C     7 rOOO   -0.0862 ****
266 C9     -6.146116   12.228339   -4.120479 C     7 rOOO   -0.0143 ****
267 S10    -6.448470   13.554150   -2.935057 S     7 rOOO   -0.2974 ****
268 C11    -5.222031   14.853749   -3.189841 C     7 rOOO   -0.0143 ****
269 C26    -5.466530   15.992338   -2.189811 C     7 rOOO   -0.1171 ****
270 C27    -4.455789   17.080424   -2.378174 C     7 rOOO    0.6319 ****
271 O28    -3.507284   16.911762   -3.154099 O     7 rOOO   -0.5375 ****
272 O29    -4.587599   18.277048   -1.681326 O     7 rOOO   -0.4387 ****
273 C30    -3.514279   19.154441   -2.023889 C     7 rOOO    0.1260 ****
274 H31    -3.622261   20.098935   -1.472461 H     7 rOOO    0.0518 ****
275 H32    -3.536834   19.356162   -3.106017 H     7 rOOO    0.0518 ****
276 H33    -2.557329   18.682957   -1.759784 H     7 rOOO    0.0518 ****
277 H29    -6.473693   16.417860   -2.300961 H     7 rOOO    0.0940 ****
278 H30    -5.390827   15.618738   -1.157971 H     7 rOOO    0.0940 ****
279 H14    -4.213975   14.440991   -3.036695 H     7 rOOO    0.0784 ****
280 H15    -5.306826   15.242123   -4.215500 H     7 rOOO    0.0784 ****
281 H12    -5.138292   11.821367   -3.964697 H     7 rOOO    0.0709 ****
282 H13    -6.225442   12.632211   -5.139496 H     7 rOOO    0.0709 ****
283 H10    -8.199176   11.517390   -4.057441 H     7 rOOO    0.0799 ****
284 H11    -7.096348   10.726354   -2.884853 H     7 rOOO    0.0799 ****
285 H9     -5.948654    9.502731   -4.771735 H     7 rOOO    0.0869 ****
286 C12    -7.099212   10.411024   -6.332038 C     7 rOOO    0.6389 ****
287 O13    -7.804109   11.391987   -6.598499 O     7 rOOO   -0.6144 ****
288 N14    -6.481058    9.759398   -7.306150 N     7 rOOO   -0.5593 ****
289 H16    -5.917590    8.969087   -7.096481 H     7 rOOO    0.3455 ****
290 C15    -6.630830   10.196221   -8.655309 C     7 rOOO    0.0852 ****
291 H17    -7.700559   10.215532   -8.910861 H     7 rOOO    0.0734 ****
292 H18    -6.236595   11.217870   -8.748116 H     7 rOOO    0.0734 ****
293 C16    -5.875671    9.250571   -9.594725 C     7 rOOO    0.1147 ****
294 H19    -4.808945    9.247002   -9.330368 H     7 rOOO    0.0579 ****
295 H20    -6.283229    8.233779   -9.494575 H     7 rOOO    0.0579 ****
296 O17    -6.034057    9.696930  -10.940833 O     7 rOOO   -0.4387 ****
297 C18    -5.351883    8.843340  -11.798354 C     7 rOOO    0.6369 ****
298 O19    -4.733815    7.871027  -11.350807 O     7 rOOO   -0.5415 ****
299 C20    -5.369686    9.099928  -13.271062 C     7 rOOO   -0.1290 ****
300 H21    -6.204618    9.765966  -13.530062 H     7 rOOO    0.0839 ****
301 H22    -4.423298    9.582565  -13.556390 H     7 rOOO    0.0839 ****
302 C21    -5.448302    7.767668  -14.021306 C     7 rOOO   -0.0782 ****
303 H23    -4.583534    7.144006  -13.754806 H     7 rOOO    0.0629 ****
304 H24    -6.375264    7.244636  -13.747483 H     7 rOOO    0.0629 ****
305 C22    -5.435699    8.039739  -15.528901 C     7 rOOO   -0.1560 ****
306 H25    -6.287667    8.672986  -15.813419 H     7 rOOO    0.0754 ****
307 H26    -4.525352    8.579498  -15.828783 H     7 rOOO    0.0754 ****
308 C4     -5.525652    6.740352  -16.320153 C     8 rOOT    0.6666 ****
309 O6     -5.533006    6.699273  -17.556449 O     8 rOOT   -0.6227 ****
310 N5     -5.597526    5.625793  -15.579754 N     8 rOOT   -0.5706 ****
311 H8     -5.587306    5.711839  -14.589538 H     8 rOOT    0.3222 ****
312 C7     -5.695688    4.295711  -16.161365 C     8 rOOT    0.0508 ****
313 C8     -4.385619    3.972954  -16.934393 C     8 rOOT   -0.0862 ****
314 C9     -4.445120    2.548313  -17.529271 C     8 rOOT   -0.0143 ****
315 S10    -2.903570    2.202314  -18.400089 S     8 rOOT   -0.2975 ****
316 C11    -2.985476    0.535947  -19.088957 C     8 rOOT   -0.0143 ****
317 C26    -1.681150    0.225703  -19.836424 C     8 rOOT   -0.1171 ****
318 C27    -1.723451   -1.155707  -20.411686 C     8 rOOT    0.6315 ****
319 O28    -2.662008   -1.910916  -20.130725 O     8 rOOT   -0.5378 ****
320 O29    -0.708377   -1.584316  -21.260685 O     8 rOOT   -0.4389 ****
321 C30    -0.965743   -2.924714  -21.680542 C     8 rOOT    0.1260 ****
322 H31    -0.162561   -3.259515  -22.351816 H     8 rOOT    0.0518 ****
323 H32    -1.929068   -2.963748  -22.212220 H     8 rOOT    0.0518 ****
324 H33    -1.006673   -3.582489  -20.801078 H     8 rOOT    0.0518 ****
325 H29    -1.500054    0.944596  -20.647718 H     8 rOOT    0.0939 ****
326 H30    -0.822211    0.294241  -19.152664 H     8 rOOT    0.0939 ****
327 H14    -3.123439   -0.190528  -18.274586 H     8 rOOT    0.0784 ****
328 H15    -3.832933    0.468880  -19.787039 H     8 rOOT    0.0784 ****
329 H12    -4.578937    1.819421  -16.719077 H     8 rOOT    0.0709 ****
330 H13    -5.282878    2.469322  -18.236183 H     8 rOOT    0.0709 ****
331 H10    -4.242798    4.701880  -17.743017 H     8 rOOT    0.0799 ****
332 H11    -3.538022    4.029240  -16.237104 H     8 rOOT    0.0799 ****
333 H9     -5.854930    3.591084  -15.334475 H     8 rOOT    0.0869 ****
334 C12    -6.885704    4.265469  -17.085484 C     8 rOOT    0.6385 ****
335 O13    -6.746631    4.472508  -18.297079 O     8 rOOT   -0.6147 ****
336 N14    -8.091645    4.025045  -16.592001 N     8 rOOT   -0.5596 ****
337 H16    -8.207686    3.862356  -15.619316 H     8 rOOT    0.3453 ****
338 C15    -9.220718    4.003777  -17.462758 C     8 rOOT    0.0852 ****
339 H17    -9.279216    4.961905  -17.999944 H     8 rOOT    0.0734 ****
340 H18    -9.088735    3.202099  -18.202822 H     8 rOOT    0.0734 ****
341 C16   -10.498719    3.769166  -16.651158 C     8 rOOT    0.1147 ****
342 H19   -10.426999    2.806548  -16.125778 H     8 rOOT    0.0578 ****
343 H20   -10.620187    4.580453  -15.918314 H     8 rOOT    0.0578 ****
344 O17   -11.620811    3.751338  -17.532589 O     8 rOOT   -0.4389 ****
345 C18   -12.783525    3.539352  -16.802876 C     8 rOOT    0.6365 ****
346 O19   -12.734492    3.401422  -15.575575 O     8 rOOT   -0.5418 ****
347 C20   -14.101703    3.482576  -17.505874 C     8 rOOT   -0.1291 ****
348 H21   -14.021899    3.944950  -18.499676 H     8 rOOT    0.0839 ****
349 H22   -14.394071    2.428570  -17.622459 H     8 rOOT    0.0839 ****
350 C21   -15.170175    4.161238  -16.644626 C     8 rOOT   -0.0782 ****
351 H23   -15.236012    3.653205  -15.672325 H     8 rOOT    0.0628 ****
352 H24   -14.903195    5.215948  -16.489358 H     8 rOOT    0.0628 ****
353 C3    -16.553176    4.107177  -17.315318 C     9 rOTX   -0.1435 ****
354 H11   -16.850630    3.059811  -17.471989 H     9 rOTX    0.0625 ****
355 H12   -16.516265    4.620886  -18.287296 H     9 rOTX    0.0625 ****
356 C4    -17.601853    4.781363  -16.454519 C     9 rOTX    0.6707 ****
357 N5    -17.939594    4.347444  -15.224863 N     9 rOTX   -0.5586 ****
358 C7    -17.335791    3.186735  -14.583750 C     9 rOTX    0.0027 ****
359 C8    -18.108396    1.838377  -14.863486 C     9 rOTX   -0.1031 ****
360 C9    -17.398251    0.769007  -13.971796 C     9 rOTX   -0.0269 ****
361 S10   -17.455258    1.652075  -12.492229 S     9 rOTX   -0.2001 ****
362 C11   -17.408615    3.224804  -13.078221 C     9 rOTX    0.5568 ****
363 O12   -17.558268    4.245555  -12.397510 O     9 rOTX   -0.4729 ****
364 H16   -16.354488    0.641122  -14.291178 H     9 rOTX    0.0853 ****
365 H17   -17.927126   -0.195191  -13.947010 H     9 rOTX    0.0853 ****
366 H14   -18.115735    1.566484  -15.928297 H     9 rOTX    0.0731 ****
367 H15   -19.139633    1.959695  -14.503442 H     9 rOTX    0.0731 ****
368 H13   -16.297615    3.036297  -14.904637 H     9 rOTX    0.0828 ****
369 H2    -18.640967    4.844613  -14.727924 H     9 rOTX    0.3358 ****
370 O6    -18.178835    5.776355  -16.904306 O     9 rOTX   -0.5854 ****
371 NI      6.360663    5.368462    6.187278 N    10 DNI    -1.0000 ****
372 DM1     5.372330    5.381231    6.030053 D    10 DNI     0.5000 ****
373 DM2     6.202683    5.356812    7.174829 D    10 DNI     0.5000 ****
374 DM3     6.370806    6.368985    6.200093 D    10 DNI     0.5000 ****
375 DM4     6.517749    5.379686    5.199588 D    10 DNI     0.5000 ****
376 DM5     6.349914    4.369217    6.174445 D    10 DNI     0.5000 ****
377 DM6     7.347495    5.356545    6.344346 D    10 DNI     0.5000 ****
378 Cl-    17.487684   -0.004767    2.993445 C    11 Cl-    -1.0000 ****
379 Cl-    21.013490    3.180752   -0.670045 C    12 Cl-    -1.0000 ****
380 HC1    -2.170202   -2.017073   31.665939 H    13 MOH     0.0372 ****
381 C1     -1.632689   -1.674553   30.781348 C    13 MOH     0.1166 ****
382 HC2    -1.960624   -2.248550   29.914435 H    13 MOH     0.0372 ****
383 HC3    -0.573251   -1.859081   30.959539 H    13 MOH     0.0372 ****
384 O1     -1.893074   -0.293857   30.512648 O    13 MOH    -0.6497 ****
385 HO1    -1.633844   -0.088916   29.611794 H    13 MOH     0.4215 ****
386 HC1     0.395542   -9.430862   33.230059 H    14 MOH     0.0372 ****
387 C1      0.594151   -8.470254   33.704528 C    14 MOH     0.1166 ****
388 HC2     1.658785   -8.253066   33.621089 H    14 MOH     0.0372 ****
389 HC3     0.364943   -8.505363   34.769430 H    14 MOH     0.0372 ****
390 O1     -0.199128   -7.474536   33.053282 O    14 MOH    -0.6497 ****
391 HO1    -0.151786   -6.698456   33.616846 H    14 MOH     0.4215 ****
392 HC1    -4.092201    1.740036   36.248698 H    15 MOH     0.0372 ****
393 C1     -4.673016    2.121340   37.088741 C    15 MOH     0.1166 ****
394 HC2    -4.375680    3.128489   37.380776 H    15 MOH     0.0372 ****
395 HC3    -4.465170    1.466102   37.935147 H    15 MOH     0.0372 ****
396 O1     -6.052305    2.077657   36.803777 O    15 MOH    -0.6497 ****
397 HO1    -6.457605    1.402823   37.353198 H    15 MOH     0.4215 ****
398 HC1     0.792759   -2.442876   37.562502 H    16 MOH     0.0372 ****
399 C1      1.213070   -1.559427   38.043335 C    16 MOH     0.1166 ****
400 HC2     1.466527   -0.817639   37.286023 H    16 MOH     0.0372 ****
401 HC3     2.099880   -1.842343   38.609727 H    16 MOH     0.0372 ****
402 O1      0.207903   -1.062997   38.866407 O    16 MOH    -0.6497 ****
403 HO1     0.564129   -0.866629   39.735441 H    16 MOH     0.4215 ****
404 HC1    -1.125198   -3.507996   34.688113 H    17 MOH     0.0372 ****
405 C1     -0.381571   -4.028921   34.085658 C    17 MOH     0.1166 ****
406 HC2     0.534106   -3.439410   34.037575 H    17 MOH     0.0372 ****
407 HC3    -0.717589   -4.150170   33.055404 H    17 MOH     0.0372 ****
408 O1     -0.043244   -5.257748   34.669728 O    17 MOH    -0.6497 ****
409 HO1    -0.747034   -5.529233   35.262991 H    17 MOH     0.4215 ****
410 HC1    -7.418316   -9.394936   29.937770 H    18 MOH     0.0372 ****
411 C1     -6.494556   -9.206734   29.389762 C    18 MOH     0.1166 ****
412 HC2    -5.903926  -10.121618   29.427239 H    18 MOH     0.0372 ****
413 HC3    -5.972054   -8.383297   29.876959 H    18 MOH     0.0372 ****
414 O1     -6.767642   -8.854415   28.035652 O    18 MOH    -0.6497 ****
415 HO1    -5.985910   -8.432287   27.672200 H    18 MOH     0.4215 ****
416 HC1    -4.452468   -2.774373   35.738167 H    19 MOH     0.0372 ****
417 C1     -3.859529   -3.112811   34.888931 C    19 MOH     0.1166 ****
418 HC2    -3.492334   -4.108529   35.137126 H    19 MOH     0.0372 ****
419 HC3    -3.012556   -2.442876   34.736903 H    19 MOH     0.0372 ****
420 O1     -4.663778   -3.163842   33.718670 O    19 MOH    -0.6497 ****
421 HO1    -4.256746   -3.814182   33.140963 H    19 MOH     0.4215 ****
422 HC1    -5.798271   -0.181589   35.250970 H    20 MOH     0.0372 ****
423 C1     -6.645822   -0.846217   35.420676 C    20 MOH     0.1166 ****
424 HC2    -7.511270   -0.202409   35.576946 H    20 MOH     0.0372 ****
425 HC3    -6.413149   -1.447975   36.298902 H    20 MOH     0.0372 ****
426 O1     -6.779189   -1.547996   34.205159 O    20 MOH    -0.6497 ****
427 HO1    -5.933371   -1.953794   34.000098 H    20 MOH     0.4215 ****
428 HC1     3.979733   -4.804184   38.456285 H    21 MOH     0.0372 ****
429 C1      3.532864   -4.390220   37.552603 C    21 MOH     0.1166 ****
430 HC2     2.505180   -4.071378   37.724430 H    21 MOH     0.0372 ****
431 HC3     3.563463   -5.162626   36.783271 H    21 MOH     0.0372 ****
432 O1      4.343463   -3.325917   37.164401 O    21 MOH    -0.6497 ****
433 HO1     4.525329   -2.779681   37.932319 H    21 MOH     0.4215 ****
434 HC1    -2.794318   -7.056490   33.050454 H    22 MOH     0.0372 ****
435 C1     -3.718656   -6.541280   32.788824 C    22 MOH     0.1166 ****
436 HC2    -4.431683   -6.588229   33.612604 H    22 MOH     0.0372 ****
437 HC3    -4.154555   -6.987496   31.895748 H    22 MOH     0.0372 ****
438 O1     -3.480787   -5.192020   32.509517 O    22 MOH    -0.6497 ****
439 HO1    -2.976183   -5.161810   31.693516 H    22 MOH     0.4215 ****
440 HC1     7.207005   -1.053362   35.762208 H    23 MOH     0.0372 ****
441 C1      7.019944   -2.039282   36.187180 C    23 MOH     0.1166 ****
442 HC2     6.627923   -1.944568   37.199756 H    23 MOH     0.0372 ****
443 HC3     7.977191   -2.555716   36.255769 H    23 MOH     0.0372 ****
444 O1      6.178745   -2.843123   35.337944 O    23 MOH    -0.6497 ****
445 HO1     5.462830   -3.189317   35.875345 H    23 MOH     0.4215 ****
446 HC1    -5.485463    5.347155   36.820040 H    24 MOH     0.0372 ****
447 C1     -5.442739    5.588838   37.882114 C    24 MOH     0.1166 ****
448 HC2    -4.405818    5.526784   38.213040 H    24 MOH     0.0372 ****
449 HC3    -6.040297    4.887059   38.464063 H    24 MOH     0.0372 ****
450 O1     -5.876329    6.882577   38.151522 O    24 MOH    -0.6497 ****
451 HO1    -6.645937    7.074045   37.610585 H    24 MOH     0.4215 ****
452 HC1    -3.732628    0.684551   32.897719 H    25 MOH     0.0372 ****
453 C1     -3.319822    1.692108   32.860949 C    25 MOH     0.1166 ****
454 HC2    -3.405270    2.162818   33.840292 H    25 MOH     0.0372 ****
455 HC3    -3.896595    2.279985   32.146771 H    25 MOH     0.0372 ****
456 O1     -1.980369    1.636586   32.429614 O    25 MOH    -0.6497 ****
457 HO1    -1.946883    0.976040   31.733821 H    25 MOH     0.4215 ****
458 HC1    -3.077912    4.799694   35.120862 H    26 MOH     0.0372 ****
459 C1     -2.289829    4.833987   34.368501 C    26 MOH     0.1166 ****
460 HC2    -2.710140    5.225497   33.441484 H    26 MOH     0.0372 ****
461 HC3    -1.892035    3.836228   34.181825 H    26 MOH     0.0372 ****
462 O1     -1.283508    5.734174   34.718519 O    26 MOH    -0.6497 ****
463 HO1    -0.456165    5.269179   34.574976 H    26 MOH     0.4215 ****
464 HC1     0.125804    4.179156   32.402744 H    27 MOH     0.0372 ****
465 C1      0.555930    3.609242   33.227230 C    27 MOH     0.1166 ****
466 HC2     1.331312    2.965434   32.812159 H    27 MOH     0.0372 ****
467 HC3    -0.189429    2.960535   33.687557 H    27 MOH     0.0372 ****
468 O1      1.125198    4.503714   34.166975 O    27 MOH    -0.6497 ****
469 HO1     1.539735    3.964418   34.843677 H    27 MOH     0.4215 ****
470 HC1     6.894081    3.332041   35.012675 H    28 MOH     0.0372 ****
471 C1      7.199500    2.351837   34.645687 C    28 MOH     0.1166 ****
472 HC2     8.148664    2.431445   34.116064 H    28 MOH     0.0372 ****
473 HC3     6.432779    1.959510   33.978885 H    28 MOH     0.0372 ****
474 O1      7.353075    1.431237   35.719782 O    28 MOH    -0.6497 ****
475 HO1     8.202357    0.997269   35.611595 H    28 MOH     0.4215 ****
476 HC1     4.179958    7.007500   29.937770 H    29 MOH     0.0372 ****
477 C1      5.103718    7.195703   29.389762 C    29 MOH     0.1166 ****
478 HC2     5.694348    6.280818   29.427239 H    29 MOH     0.0372 ****
479 HC3     5.626220    8.019140   29.876959 H    29 MOH     0.0372 ****
480 O1      4.830632    7.548021   28.035652 O    29 MOH    -0.6497 ****
481 HO1     5.612364    7.970150   27.672200 H    29 MOH     0.4215 ****
482 HC1     4.063333    5.706005   32.433857 H    30 MOH     0.0372 ****
483 C1      4.343348    4.797652   32.967722 C    30 MOH     0.1166 ****
484 HC2     5.151638    4.302039   32.430321 H    30 MOH     0.0372 ****
485 HC3     3.512541    4.091791   32.991057 H    30 MOH     0.0372 ****
486 O1      4.780980    5.058931   34.287184 O    30 MOH    -0.6497 ****
487 HO1     4.433415    4.354295   34.838727 H    30 MOH     0.4215 ****
488 HC1     4.851416   -0.334437   34.898831 H    31 MOH     0.0372 ****
489 C1      4.114717    0.011350   35.623615 C    31 MOH     0.1166 ****
490 HC2     3.843940   -0.796574   36.304559 H    31 MOH     0.0372 ****
491 HC3     3.205968    0.311004   35.103185 H    31 MOH     0.0372 ****
492 O1      4.554658    1.092799   36.417696 O    31 MOH    -0.6497 ****
493 HO1     5.502090    1.024214   36.553461 H    31 MOH     0.4215 ****
494 HC1    -0.936520   -0.873733   33.589976 H    32 MOH     0.0372 ****
495 C1     -0.422678   -0.564689   34.500023 C    32 MOH     0.1166 ****
496 HC2     0.660431   -0.590817   34.384057 H    32 MOH     0.0372 ****
497 HC3    -0.725787   -1.204006   35.330166 H    32 MOH     0.0372 ****
498 O1     -0.862042    0.692716   34.782865 O    32 MOH    -0.6497 ****
499 HO1    -1.194018    1.054832   33.957672 H    32 MOH     0.4215 ****
500 HC1     0.915042    2.335099   37.323500 H    33 MOH     0.0372 ****
501 C1      0.032851    2.918486   37.584422 C    33 MOH     0.1166 ****
502 HC2     0.337114    3.917061   37.895549 H    33 MOH     0.0372 ****
503 HC3    -0.502353    2.428588   38.397595 H    33 MOH     0.0372 ****
504 O1     -0.788141    2.973599   36.416989 O    33 MOH    -0.6497 ****
505 HO1    -0.878785    2.084843   36.064143 H    33 MOH     0.4215 ****
506 HC1    -2.170202  -26.620728   17.461012 H    34 MOH     0.0372 ****
507 C1     -1.632689  -26.278207   16.576422 C    34 MOH     0.1166 ****
508 HC2    -1.960624  -26.852205   15.709509 H    34 MOH     0.0372 ****
509 HC3    -0.573251  -26.462736   16.754613 H    34 MOH     0.0372 ****
510 O1     -1.893074  -24.897512   16.307721 O    34 MOH    -0.6497 ****
511 HO1    -1.633844  -24.692571   15.406867 H    34 MOH     0.4215 ****
512 HC1     0.395542  -34.034517   19.025132 H    35 MOH     0.0372 ****
513 C1      0.594151  -33.073909   19.499601 C    35 MOH     0.1166 ****
514 HC2     1.658785  -32.856720   19.416162 H    35 MOH     0.0372 ****
515 HC3     0.364943  -33.109018   20.564504 H    35 MOH     0.0372 ****
516 O1     -0.199128  -32.078191   18.848356 O    35 MOH    -0.6497 ****
517 HO1    -0.151786  -31.302111   19.411920 H    35 MOH     0.4215 ****
518 HC1    -4.092201  -22.863619   22.043771 H    36 MOH     0.0372 ****
519 C1     -4.673016  -22.482315   22.883814 C    36 MOH     0.1166 ****
520 HC2    -4.375680  -21.475166   23.175849 H    36 MOH     0.0372 ****
521 HC3    -4.465169  -23.137553   23.730221 H    36 MOH     0.0372 ****
522 O1     -6.052305  -22.525997   22.598850 O    36 MOH    -0.6497 ****
523 HO1    -6.457605  -23.200832   23.148272 H    36 MOH     0.4215 ****
524 HC1     0.792759  -27.046531   23.357576 H    37 MOH     0.0372 ****
525 C1      1.213070  -26.163081   23.838408 C    37 MOH     0.1166 ****
526 HC2     1.466527  -25.421294   23.081097 H    37 MOH     0.0372 ****
527 HC3     2.099880  -26.445997   24.404801 H    37 MOH     0.0372 ****
528 O1      0.207904  -25.666652   24.661481 O    37 MOH    -0.6497 ****
529 HO1     0.564129  -25.470284   25.530515 H    37 MOH     0.4215 ****
530 HC1    -1.125198  -28.111651   20.483187 H    38 MOH     0.0372 ****
531 C1     -0.381571  -28.632575   19.880732 C    38 MOH     0.1166 ****
532 HC2     0.534107  -28.043065   19.832648 H    38 MOH     0.0372 ****
533 HC3    -0.717589  -28.753825   18.850477 H    38 MOH     0.0372 ****
534 O1     -0.043244  -29.861403   20.464802 O    38 MOH    -0.6497 ****
535 HO1    -0.747034  -30.132888   21.058064 H    38 MOH     0.4215 ****
536 HC1    -7.418316  -33.998591   15.732843 H    39 MOH     0.0372 ****
537 C1     -6.494556  -33.810388   15.184835 C    39 MOH     0.1166 ****
538 HC2    -5.903926  -34.725273   15.222312 H    39 MOH     0.0372 ****
539 HC3    -5.972054  -32.986952   15.672032 H    39 MOH     0.0372 ****
540 O1     -6.767642  -33.458070   13.830726 O    39 MOH    -0.6497 ****
541 HO1    -5.985910  -33.035941   13.467273 H    39 MOH     0.4215 ****
542 HC1    -4.452468  -27.378028   21.533240 H    40 MOH     0.0372 ****
543 C1     -3.859529  -27.716466   20.684005 C    40 MOH     0.1166 ****
544 HC2    -3.492334  -28.712184   20.932199 H    40 MOH     0.0372 ****
545 HC3    -3.012556  -27.046531   20.531977 H    40 MOH     0.0372 ****
546 O1     -4.663778  -27.767497   19.513743 O    40 MOH    -0.6497 ****
547 HO1    -4.256746  -28.417837   18.936037 H    40 MOH     0.4215 ****
548 HC1    -5.798271  -24.785243   21.046044 H    41 MOH     0.0372 ****
549 C1     -6.645821  -25.449872   21.215749 C    41 MOH     0.1166 ****
550 HC2    -7.511269  -24.806064   21.372020 H    41 MOH     0.0372 ****
551 HC3    -6.413149  -26.051630   22.093976 H    41 MOH     0.0372 ****
552 O1     -6.779189  -26.151651   20.000233 O    41 MOH    -0.6497 ****
553 HO1    -5.933371  -26.557449   19.795172 H    41 MOH     0.4215 ****
554 HC1     3.979733  -29.407839   24.251359 H    42 MOH     0.0372 ****
555 C1      3.532864  -28.993875   23.347676 C    42 MOH     0.1166 ****
556 HC2     2.505180  -28.675033   23.519503 H    42 MOH     0.0372 ****
557 HC3     3.563463  -29.766281   22.578344 H    42 MOH     0.0372 ****
558 O1      4.343464  -27.929572   22.959475 O    42 MOH    -0.6497 ****
559 HO1     4.525329  -27.383336   23.727393 H    42 MOH     0.4215 ****
560 HC1    -2.794318  -31.660145   18.845527 H    43 MOH     0.0372 ****
561 C1     -3.718656  -31.144935   18.583898 C    43 MOH     0.1166 ****
562 HC2    -4.431683  -31.191884   19.407677 H    43 MOH     0.0372 ****
563 HC3    -4.154555  -31.591151   17.690822 H    43 MOH     0.0372 ****
564 O1     -3.480787  -29.795675   18.304591 O    43 MOH    -0.6497 ****
565 HO1    -2.976183  -29.765464   17.488589 H    43 MOH     0.4215 ****
566 HC1     0.977973  -10.250543   26.372679 H    44 MOH     0.0372 ****
567 C1     -0.058370  -10.111738   26.679563 C    44 MOH     0.1166 ****
568 HC2    -0.621864   -9.747581   25.821136 H    44 MOH     0.0372 ****
569 HC3    -0.128230   -9.361786   27.467987 H    44 MOH     0.0372 ****
570 O1     -0.583759  -11.354446   27.096756 O    44 MOH    -0.6497 ****
571 HO1    -1.346439  -11.202170   27.658906 H    44 MOH     0.4215 ****
572 HC1    13.844224  -14.803328   29.189792 H    45 MOH     0.0372 ****
573 C1     14.277814  -14.610226   30.170550 C    45 MOH     0.1166 ****
574 HC2    14.563603  -13.559395   30.221461 H    45 MOH     0.0372 ****
575 HC3    15.165779  -15.229539   30.297122 H    45 MOH     0.0372 ****
576 O1     13.323454  -14.924986   31.178177 O    45 MOH    -0.6497 ****
577 HO1    13.524372  -15.816600   31.470919 H    45 MOH     0.4215 ****
578 HC1     7.207005  -25.657017   21.557282 H    46 MOH     0.0372 ****
579 C1      7.019944  -26.642936   21.982253 C    46 MOH     0.1166 ****
580 HC2     6.627923  -26.548223   22.994830 H    46 MOH     0.0372 ****
581 HC3     7.977191  -27.159371   22.050842 H    46 MOH     0.0372 ****
582 O1      6.178745  -27.446777   21.133018 O    46 MOH    -0.6497 ****
583 HO1     5.462830  -27.792972   21.670419 H    46 MOH     0.4215 ****
584 HC1     9.837413  -25.185082   28.194186 H    47 MOH     0.0372 ****
585 C1      8.988708  -24.750297   28.722395 C    47 MOH     0.1166 ****
586 HC2     8.852454  -23.723145   28.384398 H    47 MOH     0.0372 ****
587 HC3     9.153253  -24.762545   29.800026 H    47 MOH     0.0372 ****
588 O1      7.823038  -25.448402   28.388640 O    47 MOH    -0.6497 ****
589 HO1     7.850174  -26.248977   28.918263 H    47 MOH     0.4215 ****
590 HC1    17.913966  -16.414684   24.574507 H    48 MOH     0.0372 ****
591 C1     17.719399  -15.673305   25.349496 C    48 MOH     0.1166 ****
592 HC2    16.655343  -15.631255   25.582134 H    48 MOH     0.0372 ****
593 HC3    18.020776  -14.684936   25.002306 H    48 MOH     0.0372 ****
594 O1     18.389125  -16.003578   26.560769 O    48 MOH    -0.6497 ****
595 HO1    18.171464  -16.898050   26.833006 H    48 MOH     0.4215 ****
596 HC1     2.027596  -11.701865   31.041705 H    49 MOH     0.0372 ****
597 C1      2.631504  -11.150322   31.762247 C    49 MOH     0.1166 ****
598 HC2     3.443259  -11.785556   32.115800 H    49 MOH     0.0372 ****
599 HC3     1.983140  -10.864548   32.590976 H    49 MOH     0.0372 ****
600 O1      3.136109  -10.026415   31.106759 O    49 MOH    -0.6497 ****
601 HO1     3.949018   -9.764727   31.545872 H    49 MOH     0.4215 ****
602 HC1     8.731788  -18.109322   18.580362 H    50 MOH     0.0372 ****
603 C1      7.939663  -18.641678   19.106450 C    50 MOH     0.1166 ****
604 HC2     7.966798  -18.384074   20.164989 H    50 MOH     0.0372 ****
605 HC3     8.105363  -19.709248   18.964321 H    50 MOH     0.0372 ****
606 O1      6.711062  -18.226082   18.550664 O    50 MOH    -0.6497 ****
607 HO1     6.016509  -18.584932   19.108571 H    50 MOH     0.4215 ****
608 HC1     9.428072  -10.218291   17.461012 H    51 MOH     0.0372 ****
609 C1      9.965585   -9.875771   16.576422 C    51 MOH     0.1166 ****
610 HC2     9.637650  -10.449768   15.709509 H    51 MOH     0.0372 ****
611 HC3    11.025023  -10.060299   16.754613 H    51 MOH     0.0372 ****
612 O1      9.705200   -8.495075   16.307721 O    51 MOH    -0.6497 ****
613 HO1     9.964430   -8.290135   15.406867 H    51 MOH     0.4215 ****
614 HC1    12.796911  -12.050510   26.103271 H    52 MOH     0.0372 ****
615 C1     12.845408  -13.138083   26.052360 C    52 MOH     0.1166 ****
616 HC2    12.467244  -13.492851   25.094230 H    52 MOH     0.0372 ****
617 HC3    12.238613  -13.584707   26.840077 H    52 MOH     0.0372 ****
618 O1     14.181974  -13.572459   26.125899 O    52 MOH    -0.6497 ****
619 HO1    14.149642  -14.531843   26.147112 H    52 MOH     0.4215 ****
620 HC1    11.993817  -17.632080   19.025132 H    53 MOH     0.0372 ****
621 C1     12.192425  -16.671472   19.499601 C    53 MOH     0.1166 ****
622 HC2    13.257059  -16.454284   19.416162 H    53 MOH     0.0372 ****
623 HC3    11.963217  -16.706581   20.564504 H    53 MOH     0.0372 ****
624 O1     11.399146  -15.675754   18.848356 O    53 MOH    -0.6497 ****
625 HO1    11.446489  -14.899674   19.411920 H    53 MOH     0.4215 ****
626 HC1    -2.431280  -18.918879   27.470816 H    54 MOH     0.0372 ****
627 C1     -1.516757  -18.612693   26.963113 C    54 MOH     0.1166 ****
628 HC2    -0.921509  -17.958271   27.600216 H    54 MOH     0.0372 ****
629 HC3    -1.792153  -18.066456   26.060845 H    54 MOH     0.0372 ****
630 O1     -0.814699  -19.752114   26.565012 O    54 MOH    -0.6497 ****
631 HO1     0.120031  -19.553297   26.654815 H    54 MOH     0.4215 ****
632 HC1    10.835075  -23.099341   24.037105 H    55 MOH     0.0372 ****
633 C1     10.882417  -22.375925   24.851692 C    55 MOH     0.1166 ****
634 HC2    10.089138  -21.648427   24.680572 H    55 MOH     0.0372 ****
635 HC3    11.843128  -21.862349   24.805023 H    55 MOH     0.0372 ****
636 O1     10.697088  -23.017692   26.145698 O    55 MOH    -0.6497 ****
637 HO1    10.505408  -22.342041   26.801186 H    55 MOH     0.4215 ****
638 HC1    -5.485463  -19.256500   22.615113 H    56 MOH     0.0372 ****
639 C1     -5.442739  -19.014817   23.677188 C    56 MOH     0.1166 ****
640 HC2    -4.405818  -19.076871   24.008114 H    56 MOH     0.0372 ****
641 HC3    -6.040296  -19.716596   24.259137 H    56 MOH     0.0372 ****
642 O1     -5.876329  -17.721078   23.946595 O    56 MOH    -0.6497 ****
643 HO1    -6.645937  -17.529610   23.405659 H    56 MOH     0.4215 ****
644 HC1    17.592959  -14.384873   28.356114 H    57 MOH     0.0372 ****
645 C1     17.675520  -13.445086   28.902000 C    57 MOH     0.1166 ****
646 HC2    16.848755  -12.789439   28.629057 H    57 MOH     0.0372 ****
647 HC3    18.632767  -12.982949   28.657341 H    57 MOH     0.0372 ****
648 O1     17.634529  -13.803119   30.243382 O    57 MOH    -0.6497 ****
649 HO1    17.858540  -13.060108   30.807653 H    57 MOH     0.4215 ****
650 HC1     5.500358   -9.760645   28.099434 H    58 MOH     0.0372 ****
651 C1      4.834673   -8.901690   28.184286 C    58 MOH     0.1166 ****
652 HC2     3.792556   -9.221757   28.177215 H    58 MOH     0.0372 ****
653 HC3     4.969773   -8.277071   27.301817 H    58 MOH     0.0372 ****
654 O1      5.060417   -8.104790   29.387782 O    58 MOH    -0.6497 ****
655 HO1     4.987671   -8.671847   30.157821 H    58 MOH     0.4215 ****
656 HC1    -2.176091  -17.147081   23.001901 H    59 MOH     0.0372 ****
657 C1     -2.716491  -16.277512   22.628548 C    59 MOH     0.1166 ****
658 HC2    -3.159896  -16.606969   21.688804 H    59 MOH     0.0372 ****
659 HC3    -1.993648  -15.474488   22.482177 H    59 MOH     0.0372 ****
660 O1     -3.707801  -15.939075   23.622033 O    59 MOH    -0.6497 ****
661 HO1    -4.343464  -16.653101   23.704765 H    59 MOH     0.4215 ****
662 HC1    -3.732627  -23.919104   18.692792 H    60 MOH     0.0372 ****
663 C1     -3.319822  -22.911547   18.656023 C    60 MOH     0.1166 ****
664 HC2    -3.405270  -22.440837   19.635365 H    60 MOH     0.0372 ****
665 HC3    -3.896595  -22.323670   17.941845 H    60 MOH     0.0372 ****
666 O1     -1.980369  -22.967069   18.224687 O    60 MOH    -0.6497 ****
667 HO1    -1.946883  -23.627615   17.528894 H    60 MOH     0.4215 ****
668 HC1    12.380641  -25.762345   24.641682 H    61 MOH     0.0372 ****
669 C1     11.700523  -26.331035   25.275956 C    61 MOH     0.1166 ****
670 HC2    12.055016  -26.293884   26.306211 H    61 MOH     0.0372 ****
671 HC3    11.645674  -27.367577   24.944323 H    61 MOH     0.0372 ****
672 O1     10.467880  -25.708048   25.193932 O    61 MOH    -0.6497 ****
673 HO1    10.570071  -24.815209   25.529808 H    61 MOH     0.4215 ****
674 HC1     2.440979   -5.506698   30.833108 H    62 MOH     0.0372 ****
675 C1      1.986604   -5.208676   29.888414 C    62 MOH     0.1166 ****
676 HC2     0.905805   -5.343398   29.936497 H    62 MOH     0.0372 ****
677 HC3     2.409225   -5.833296   29.100697 H    62 MOH     0.0372 ****
678 O1      2.268351   -3.851251   29.628906 O    62 MOH    -0.6497 ****
679 HO1     1.998729   -3.656925   28.728052 H    62 MOH     0.4215 ****
680 HC1     3.481941   -2.593030   33.956399 H    63 MOH     0.0372 ****
681 C1      3.140150   -3.262557   33.167268 C    63 MOH     0.1166 ****
682 HC2     2.641897   -4.138658   33.583047 H    63 MOH     0.0372 ****
683 HC3     4.012526   -3.580582   32.596633 H    63 MOH     0.0372 ****
684 O1      2.358995   -2.532609   32.245201 O    63 MOH    -0.6497 ****
685 HO1     2.386131   -3.019649   31.418593 H    63 MOH     0.4215 ****
686 HC1     6.248604  -19.298958   29.625370 H    64 MOH     0.0372 ****
687 C1      6.108308  -19.453276   28.556225 C    64 MOH     0.1166 ****
688 HC2     5.912009  -18.498791   28.066907 H    64 MOH     0.0372 ****
689 HC3     5.274037  -20.132193   28.380155 H    64 MOH     0.0372 ****
690 O1      7.283793  -20.007677   28.004681 O    64 MOH    -0.6497 ****
691 HO1     7.930425  -20.108514   28.706838 H    64 MOH     0.4215 ****
692 HC1     9.011802  -11.262590   30.915840 H    65 MOH     0.0372 ****
693 C1      9.494467  -12.228506   30.768762 C    65 MOH     0.1166 ****
694 HC2     8.721395  -12.982540   30.620976 H    65 MOH     0.0372 ****
695 HC3    10.059116  -12.471005   31.668202 H    65 MOH     0.0372 ****
696 O1     10.402639  -12.200745   29.645876 O    65 MOH    -0.6497 ****
697 HO1    11.113935  -11.596537   29.874979 H    65 MOH     0.4215 ****
698 HC1     3.704799  -19.505123   22.256610 H    66 MOH     0.0372 ****
699 C1      3.543718  -20.517987   22.625013 C    66 MOH     0.1166 ****
700 HC2     2.792585  -20.473080   23.412730 H    66 MOH     0.0372 ****
701 HC3     4.468633  -20.918479   23.040085 H    66 MOH     0.0372 ****
702 O1      3.092230  -21.364694   21.568595 O    66 MOH    -0.6497 ****
703 HO1     3.496953  -22.222832   21.718502 H    66 MOH     0.4215 ****
704 HC1    12.303854  -19.249968   28.689161 H    67 MOH     0.0372 ****
705 C1     12.287110  -20.257117   28.271261 C    67 MOH     0.1166 ****
706 HC2    12.788828  -20.915621   28.979075 H    67 MOH     0.0372 ****
707 HC3    12.838480  -20.285694   27.330809 H    67 MOH     0.0372 ****
708 O1     10.944194  -20.692718   28.122061 O    67 MOH    -0.6497 ****
709 HO1    10.452291  -20.431847   28.904828 H    67 MOH     0.4215 ****
710 HC1     6.438552  -15.458975   27.820834 H    68 MOH     0.0372 ****
711 C1      5.375073  -15.258116   27.689312 C    68 MOH     0.1166 ****
712 HC2     4.793104  -16.179125   27.716182 H    68 MOH     0.0372 ****
713 HC3     5.209951  -14.787406   26.719868 H    68 MOH     0.0372 ****
714 O1      4.924740  -14.367727   28.668655 O    68 MOH    -0.6497 ****
715 HO1     5.035014  -13.473255   28.338436 H    68 MOH     0.4215 ****
716 HC1    10.151492  -12.531426   25.024226 H    69 MOH     0.0372 ****
717 C1      9.747347  -12.185640   24.073168 C    69 MOH     0.1166 ****
718 HC2     8.814349  -12.709014   23.861036 H    69 MOH     0.0372 ****
719 HC3    10.468457  -12.330568   23.269187 H    69 MOH     0.0372 ****
720 O1      9.500818  -10.819641   24.227317 O    69 MOH    -0.6497 ****
721 HO1    10.325274  -10.364036   24.415407 H    69 MOH     0.4215 ****
722 HC1     5.349092  -11.859449   22.560666 H    70 MOH     0.0372 ****
723 C1      5.111801  -12.146040   23.585971 C    70 MOH     0.1166 ****
724 HC2     5.873904  -12.808627   23.995386 H    70 MOH     0.0372 ****
725 HC3     4.158596  -12.674721   23.566879 H    70 MOH     0.0372 ****
726 O1      5.010188  -11.019683   24.423893 O    70 MOH    -0.6497 ****
727 HO1     5.783837  -10.463240   24.304392 H    70 MOH     0.4215 ****
728 HC1    12.391034  -10.644094   23.357576 H    71 MOH     0.0372 ****
729 C1     12.811345   -9.760645   23.838408 C    71 MOH     0.1166 ****
730 HC2    13.064801   -9.018858   23.081097 H    71 MOH     0.0372 ****
731 HC3    13.698155  -10.043561   24.404801 H    71 MOH     0.0372 ****
732 O1     11.806178   -9.264215   24.661481 O    71 MOH    -0.6497 ****
733 HO1    12.162403   -9.067848   25.530515 H    71 MOH     0.4215 ****
734 HC1     6.742238   -8.336267   35.933470 H    72 MOH     0.0372 ****
735 C1      6.699514   -7.462207   35.283639 C    72 MOH     0.1166 ****
736 HC2     7.500299   -6.762061   35.521934 H    72 MOH     0.0372 ****
737 HC3     5.760166   -6.946181   35.478800 H    72 MOH     0.0372 ****
738 O1      6.700092   -7.816566   33.892052 O    72 MOH    -0.6497 ****
739 HO1     6.809211   -7.024157   33.361015 H    72 MOH     0.4215 ****
740 HC1     1.055916  -12.605727   24.547636 H    73 MOH     0.0372 ****
741 C1      0.473369  -13.478562   24.843207 C    73 MOH     0.1166 ****
742 HC2     0.809387  -14.393447   24.356010 H    73 MOH     0.0372 ****
743 HC3    -0.546809  -13.298525   24.505917 H    73 MOH     0.0372 ****
744 O1      0.466441  -13.625531   26.246107 O    73 MOH    -0.6497 ****
745 HO1     0.279957  -12.763719   26.627237 H    73 MOH     0.4215 ****
746 HC1     0.225109  -15.620233   28.818561 H    74 MOH     0.0372 ****
747 C1      1.256834  -15.903965   28.612793 C    74 MOH     0.1166 ****
748 HC2     1.527611  -16.729851   29.269695 H    74 MOH     0.0372 ****
749 HC3     1.905198  -15.053176   28.823511 H    74 MOH     0.0372 ****
750 O1      1.394820  -16.223215   27.250906 O    74 MOH    -0.6497 ****
751 HO1     1.098062  -15.430397   26.798357 H    74 MOH     0.4215 ****
752 HC1     5.719174  -16.347731   23.132009 H    75 MOH     0.0372 ****
753 C1      5.733608  -15.640237   22.302572 C    75 MOH     0.1166 ****
754 HC2     4.742875  -15.209127   22.161151 H    75 MOH     0.0372 ****
755 HC3     6.072512  -16.133401   21.391819 H    75 MOH     0.0372 ****
756 O1      6.610603  -14.588589   22.609457 O    75 MOH    -0.6497 ****
757 HO1     6.806902  -14.581649   23.549202 H    75 MOH     0.4215 ****
758 HC1    -0.484455  -11.865573   30.015693 H    76 MOH     0.0372 ****
759 C1     -0.724055  -12.498358   30.869878 C    76 MOH     0.1166 ****
760 HC2    -1.769637  -12.373842   31.150599 H    76 MOH     0.0372 ****
761 HC3    -0.091857  -12.190947   31.703557 H    76 MOH     0.0372 ****
762 O1     -0.422101  -13.848435   30.553801 O    76 MOH    -0.6497 ****
763 HO1    -0.884559  -14.121553   29.758306 H    76 MOH     0.4215 ****
764 HC1    -3.077912  -19.803961   20.915936 H    77 MOH     0.0372 ****
765 C1     -2.289829  -19.769668   20.163574 C    77 MOH     0.1166 ****
766 HC2    -2.710140  -19.378158   19.236557 H    77 MOH     0.0372 ****
767 HC3    -1.892035  -20.767427   19.976898 H    77 MOH     0.0372 ****
768 O1     -1.283508  -18.869481   20.513592 O    77 MOH    -0.6497 ****
769 HO1    -0.456165  -19.334476   20.370049 H    77 MOH     0.4215 ****
770 HC1     0.125804  -20.424499   18.197817 H    78 MOH     0.0372 ****
771 C1      0.555930  -20.994413   19.022304 C    78 MOH     0.1166 ****
772 HC2     1.331312  -21.638221   18.607232 H    78 MOH     0.0372 ****
773 HC3    -0.189429  -21.643120   19.482630 H    78 MOH     0.0372 ****
774 O1      1.125198  -20.099941   19.962049 O    78 MOH    -0.6497 ****
775 HO1     1.539735  -20.639237   20.638750 H    78 MOH     0.4215 ****
776 HC1    10.473076  -11.709214   20.483187 H    79 MOH     0.0372 ****
777 C1     11.216703  -12.230139   19.880732 C    79 MOH     0.1166 ****
778 HC2    12.132381  -11.640628   19.832648 H    79 MOH     0.0372 ****
779 HC3    10.880685  -12.351389   18.850477 H    79 MOH     0.0372 ****
780 O1     11.555030  -13.458966   20.464802 O    79 MOH    -0.6497 ****
781 HO1    10.851240  -13.730451   21.058064 H    79 MOH     0.4215 ****
782 HC1    11.188990  -17.386315   25.143020 H    80 MOH     0.0372 ****
783 C1     11.149730  -18.455925   24.937959 C    80 MOH     0.1166 ****
784 HC2    10.371462  -18.884178   25.569406 H    80 MOH     0.0372 ****
785 HC3    12.118524  -18.892343   25.181911 H    80 MOH     0.0372 ****
786 O1     10.861055  -18.747823   23.569708 O    80 MOH    -0.6497 ****
787 HO1    11.290604  -19.562278   23.297472 H    80 MOH     0.4215 ****
788 HC1    15.350531  -18.706181   22.896542 H    81 MOH     0.0372 ****
789 C1     14.828029  -17.777008   23.124230 C    81 MOH     0.1166 ****
790 HC2    13.795727  -17.990114   23.402831 H    81 MOH     0.0372 ****
791 HC3    14.868444  -17.130751   22.248125 H    81 MOH     0.0372 ****
792 O1     15.515653  -17.213626   24.190548 O    81 MOH    -0.6497 ****
793 HO1    15.978111  -17.928877   24.633196 H    81 MOH     0.4215 ****
794 HC1    10.223661  -16.561653   22.515411 H    82 MOH     0.0372 ****
795 C1      9.286621  -16.305682   22.022558 C    82 MOH     0.1166 ****
796 HC2     8.448309  -16.637587   22.635620 H    82 MOH     0.0372 ****
797 HC3     9.268146  -16.804561   21.053822 H    82 MOH     0.0372 ****
798 O1      9.256022  -14.922128   21.805476 O    82 MOH    -0.6497 ****
799 HO1     8.339767  -14.680853   21.653448 H    82 MOH     0.4215 ****
800 HC1     6.894082  -21.271614   20.807749 H    83 MOH     0.0372 ****
801 C1      7.199500  -22.251818   20.440760 C    83 MOH     0.1166 ****
802 HC2     8.148664  -22.172209   19.911137 H    83 MOH     0.0372 ****
803 HC3     6.432779  -22.644144   19.773959 H    83 MOH     0.0372 ****
804 O1      7.353075  -23.172418   21.514855 O    83 MOH    -0.6497 ****
805 HO1     8.202357  -23.606386   21.406668 H    83 MOH     0.4215 ****
806 HC1    12.735134  -23.919920   27.480715 H    84 MOH     0.0372 ****
807 C1     13.606356  -23.416550   27.061401 C    84 MOH     0.1166 ****
808 HC2    13.308443  -22.467373   26.618045 H    84 MOH     0.0372 ****
809 HC3    14.045142  -24.028106   26.272270 H    84 MOH     0.0372 ****
810 O1     14.575150  -23.141391   28.047108 O    84 MOH    -0.6497 ****
811 HO1    15.005275  -23.979525   28.230249 H    84 MOH     0.4215 ****
812 HC1    -3.979156  -10.027639   30.181156 H    85 MOH     0.0372 ****
813 C1     -3.116595   -9.564686   29.701738 C    85 MOH     0.1166 ****
814 HC2    -2.329666   -9.449968   30.447735 H    85 MOH     0.0372 ****
815 HC3    -3.433560   -8.572642   29.379297 H    85 MOH     0.0372 ****
816 O1     -2.733812  -10.352197   28.542790 O    85 MOH    -0.6497 ****
817 HO1    -3.427787  -10.306065   27.881645 H    85 MOH     0.4215 ****
818 HC1     4.179958  -17.596154   15.732843 H    86 MOH     0.0372 ****
819 C1      5.103719  -17.407952   15.184835 C    86 MOH     0.1166 ****
820 HC2     5.694348  -18.322836   15.222312 H    86 MOH     0.0372 ****
821 HC3     5.626220  -16.584515   15.672032 H    86 MOH     0.0372 ****
822 O1      4.830632  -17.055634   13.830726 O    86 MOH    -0.6497 ****
823 HO1     5.612364  -16.633505   13.467273 H    86 MOH     0.4215 ****
824 HC1     8.287805   -8.340349   25.753960 H    87 MOH     0.0372 ****
825 C1      7.272823   -8.723694   25.650016 C    87 MOH     0.1166 ****
826 HC2     6.551713   -7.906381   25.671229 H    87 MOH     0.0372 ****
827 HC3     7.037842   -9.418533   26.456118 H    87 MOH     0.0372 ****
828 O1      7.145229   -9.435679   24.467733 O    87 MOH    -0.6497 ****
829 HO1     7.865762  -10.068872   24.435913 H    87 MOH     0.4215 ****
830 HC1     1.766634  -22.334284   26.643501 H    88 MOH     0.0372 ****
831 C1      2.623422  -22.592297   26.019833 C    88 MOH     0.1166 ****
832 HC2     2.809328  -21.799070   25.296462 H    88 MOH     0.0372 ****
833 HC3     2.377470  -23.496159   25.462633 H    88 MOH     0.0372 ****
834 O1      3.786782  -22.782949   26.820985 O    88 MOH    -0.6497 ****
835 HO1     4.483067  -23.130776   26.259542 H    88 MOH     0.4215 ****
836 HC1     7.821306  -22.674355   25.826793 H    89 MOH     0.0372 ****
837 C1      7.323053  -23.450027   25.246965 C    89 MOH     0.1166 ****
838 HC2     8.049937  -24.195488   24.924524 H    89 MOH     0.0372 ****
839 HC3     6.860595  -22.976050   24.380759 H    89 MOH     0.0372 ****
840 O1      6.347908  -24.080770   26.043874 O    89 MOH    -0.6497 ****
841 HO1     6.819603  -24.449827   26.793408 H    89 MOH     0.4215 ****
842 HC1    11.161855  -16.622482   33.013826 H    90 MOH     0.0372 ****
843 C1     10.539471  -15.728010   33.004633 C    90 MOH     0.1166 ****
844 HC2    10.983453  -14.940907   33.614160 H    90 MOH     0.0372 ****
845 HC3     9.567791  -16.006027   33.414048 H    90 MOH     0.0372 ****
846 O1     10.359915  -15.275263   31.683051 O    90 MOH    -0.6497 ****
847 HO1    11.217280  -14.999695   31.350004 H    90 MOH     0.4215 ****
848 HC1     2.902282  -10.654709   27.195751 H    91 MOH     0.0372 ****
849 C1      3.083570  -11.692884   27.475058 C    91 MOH     0.1166 ****
850 HC2     2.424236  -12.330160   26.886038 H    91 MOH     0.0372 ****
851 HC3     2.858981  -11.847610   28.530769 H    91 MOH     0.0372 ****
852 O1      4.413785  -12.088477   27.233935 O    91 MOH    -0.6497 ****
853 HO1     4.593341  -11.980291   26.297018 H    91 MOH     0.4215 ****
854 HC1     6.790736  -16.442853   30.854322 H    92 MOH     0.0372 ****
855 C1      7.244533  -15.563486   31.311113 C    92 MOH     0.1166 ****
856 HC2     8.081691  -15.246685   30.688859 H    92 MOH     0.0372 ****
857 HC3     7.548219  -15.812518   32.327932 H    92 MOH     0.0372 ****
858 O1      6.294215  -14.565727   31.275757 O    92 MOH    -0.6497 ****
859 HO1     5.966280  -14.510205   30.374903 H    92 MOH     0.4215 ****
860 HC1    -1.376461   -4.970259   28.525112 H    93 MOH     0.0372 ****
861 C1     -2.284056   -5.033946   29.124738 C    93 MOH     0.1166 ****
862 HC2    -2.894892   -5.880653   28.812197 H    93 MOH     0.0372 ****
863 HC3    -2.833116   -4.101915   28.992509 H    93 MOH     0.0372 ****
864 O1     -1.912242   -5.217250   30.449149 O    93 MOH    -0.6497 ****
865 HO1    -1.385121   -6.019866   30.447735 H    93 MOH     0.4215 ****
866 HC1     6.160269  -19.041762   23.501825 H    94 MOH     0.0372 ****
867 C1      7.087494  -19.218533   24.045591 C    94 MOH     0.1166 ****
868 HC2     7.021676  -20.143215   24.619054 H    94 MOH     0.0372 ****
869 HC3     7.310928  -18.382032   24.708150 H    94 MOH     0.0372 ****
870 O1      8.090929  -19.320595   23.115038 O    94 MOH    -0.6497 ****
871 HO1     8.900951  -18.979708   23.501825 H    94 MOH     0.4215 ****
872 HC1     4.063333  -18.897650   18.228930 H    95 MOH     0.0372 ****
873 C1      4.343348  -19.806002   18.762796 C    95 MOH     0.1166 ****
874 HC2     5.151639  -20.301616   18.225395 H    95 MOH     0.0372 ****
875 HC3     3.512541  -20.511864   18.786130 H    95 MOH     0.0372 ****
876 O1      4.780980  -19.544723   20.082257 O    95 MOH    -0.6497 ****
877 HO1     4.433415  -20.249360   20.633800 H    95 MOH     0.4215 ****
878 HC1    15.007008  -16.599212   27.654664 H    96 MOH     0.0372 ****
879 C1     13.997222  -16.920095   27.398691 C    96 MOH     0.1166 ****
880 HC2    13.299783  -16.489393   28.117819 H    96 MOH     0.0372 ****
881 HC3    13.915816  -18.006444   27.433339 H    96 MOH     0.0372 ****
882 O1     13.642152  -16.460816   26.126606 O    96 MOH    -0.6497 ****
883 HO1    14.240864  -16.868248   25.497281 H    96 MOH     0.4215 ****
884 HC1    10.810248   -9.490793   28.928870 H    97 MOH     0.0372 ****
885 C1     10.317769   -9.054375   28.059836 C    97 MOH     0.1166 ****
886 HC2     9.375533   -8.566927   28.310152 H    97 MOH     0.0372 ****
887 HC3    10.065467   -9.888835   27.405055 H    97 MOH     0.0372 ****
888 O1     11.155504   -8.129285   27.359800 O    97 MOH    -0.6497 ****
889 HO1    10.614527   -7.429547   26.987862 H    97 MOH     0.4215 ****
890 HC1     8.717931  -29.707656   25.406771 H    98 MOH     0.0372 ****
891 C1      8.685022  -28.622532   25.307776 C    98 MOH     0.1166 ****
892 HC2     9.130159  -28.153455   26.185296 H    98 MOH     0.0372 ****
893 HC3     7.647524  -28.296750   25.232823 H    98 MOH     0.0372 ****
894 O1      9.370914  -28.245311   24.142464 O    98 MOH    -0.6497 ****
895 HO1     9.472528  -27.292051   24.182769 H    98 MOH     0.4215 ****
896 HC1    17.151286  -20.890718   26.589761 H    99 MOH     0.0372 ****
897 C1     16.245424  -20.566161   26.078523 C    99 MOH     0.1166 ****
898 HC2    15.359769  -20.958896   26.577740 H    99 MOH     0.0372 ****
899 HC3    16.252929  -20.914396   25.045440 H    99 MOH     0.0372 ****
900 O1     16.152470  -19.174034   26.092665 O    99 MOH    -0.6497 ****
901 HO1    16.422670  -18.888668   26.968770 H    99 MOH     0.4215 ****
902 HC1     9.685570  -16.326910   28.574609 H    100 MOH     0.0372 ****
903 C1     10.348946  -17.148714   28.844017 C    100 MOH     0.1166 ****
904 HC2    11.365082  -16.762511   28.921799 H    100 MOH     0.0372 ****
905 HC3    10.335089  -17.931326   28.085292 H    100 MOH     0.0372 ****
906 O1      9.970781  -17.575742   30.130952 O    100 MOH    -0.6497 ****
907 HO1    10.024475  -16.806602   30.702294 H    100 MOH     0.4215 ****
908 HC1    13.465482  -10.127660   32.677950 H    101 MOH     0.0372 ****
909 C1     13.126000  -10.873530   31.958823 C    101 MOH     0.1166 ****
910 HC2    12.619664  -11.710847   32.440362 H    101 MOH     0.0372 ****
911 HC3    14.012810  -11.270347   31.463848 H    101 MOH     0.0372 ****
912 O1     12.284801  -10.252992   31.004228 O    101 MOH    -0.6497 ****
913 HO1    12.814231   -9.567952   30.588450 H    101 MOH     0.4215 ****
914 HC1     4.171875  -17.363861   23.696987 H    102 MOH     0.0372 ****
915 C1      3.541409  -17.677396   24.528544 C    102 MOH     0.1166 ****
916 HC2     2.565109  -17.990114   24.158020 H    102 MOH     0.0372 ****
917 HC3     3.371090  -16.850285   25.218681 H    102 MOH     0.0372 ****
918 O1      4.143585  -18.731493   25.224338 O    102 MOH    -0.6497 ****
919 HO1     3.492911  -19.085852   25.833864 H    102 MOH     0.4215 ****
920 HC1     6.834037  -12.631447   26.840784 H    103 MOH     0.0372 ****
921 C1      7.490484  -12.355879   27.665977 C    103 MOH     0.1166 ****
922 HC2     6.943734  -12.391805   28.609258 H    103 MOH     0.0372 ****
923 HC3     7.836895  -11.333217   27.515363 H    103 MOH     0.0372 ****
924 O1      8.609389  -13.227898   27.731031 O    103 MOH    -0.6497 ****
925 HO1     9.214452  -12.901299   28.401368 H    103 MOH     0.4215 ****
926 HC1    10.610485   -7.916587   34.608352 H    104 MOH     0.0372 ****
927 C1     10.298716   -8.335450   35.565774 C    104 MOH     0.1166 ****
928 HC2     9.771595   -7.589172   36.158330 H    104 MOH     0.0372 ****
929 HC3    11.191300   -8.668989   36.093983 H    104 MOH     0.0372 ****
930 O1      9.484075   -9.449560   35.338793 O    104 MOH    -0.6497 ****
931 HO1     8.798183   -9.208285   34.713003 H    104 MOH     0.4215 ****
932 HC1     3.290261   -2.522403   26.888867 H    105 MOH     0.0372 ****
933 C1      2.382667   -2.142732   26.419348 C    105 MOH     0.1166 ****
934 HC2     2.513148   -2.162736   25.336767 H    105 MOH     0.0372 ****
935 HC3     2.239484   -1.111905   26.741081 H    105 MOH     0.0372 ****
936 O1      1.242400   -2.935958   26.793407 O    105 MOH    -0.6497 ****
937 HO1     0.469328   -2.430955   26.531071 H    105 MOH     0.4215 ****
938 HC1     5.447819  -10.992330   33.400613 H    106 MOH     0.0372 ****
939 C1      6.029788  -10.749830   32.511073 C    106 MOH     0.1166 ****
940 HC2     5.993415  -11.571634   31.796188 H    106 MOH     0.0372 ****
941 HC3     7.056894  -10.606535   32.848363 H    106 MOH     0.0372 ****
942 O1      5.563867   -9.505490   31.979329 O    106 MOH    -0.6497 ****
943 HO1     5.979559   -8.828206   32.517437 H    106 MOH     0.4215 ****
944 HC1     2.942119  -15.558587   31.072111 H    107 MOH     0.0372 ****
945 C1      3.104932  -15.782715   32.126407 C    107 MOH     0.1166 ****
946 HC2     3.672467  -16.709439   32.218331 H    107 MOH     0.0372 ****
947 HC3     2.121127  -15.900291   32.580369 H    107 MOH     0.0372 ****
948 O1      3.797752  -14.706165   32.718255 O    107 MOH    -0.6497 ****
949 HO1     4.636065  -14.615534   32.260050 H    107 MOH     0.4215 ****
950 HC1     2.664414  -15.663507   21.736180 H    108 MOH     0.0372 ****
951 C1      2.531046  -16.686169   21.383333 C    108 MOH     0.1166 ****
952 HC2     1.532230  -16.763736   20.954827 H    108 MOH     0.0372 ****
953 HC3     2.604369  -17.403053   22.200749 H    108 MOH     0.0372 ****
954 O1      3.451342  -16.963370   20.371464 O    108 MOH    -0.6497 ****
955 HO1     3.567389  -17.911322   20.279540 H    108 MOH     0.4215 ****
956 HC1     4.851416  -24.938092   20.693904 H    109 MOH     0.0372 ****
957 C1      4.114717  -24.592305   21.418689 C    109 MOH     0.1166 ****
958 HC2     3.843940  -25.400229   22.099633 H    109 MOH     0.0372 ****
959 HC3     3.205968  -24.292651   20.898258 H    109 MOH     0.0372 ****
960 O1      4.554658  -23.510856   22.212770 O    109 MOH    -0.6497 ****
961 HO1     5.502090  -23.579441   22.348534 H    109 MOH     0.4215 ****
962 HC1     3.688633  -27.188764   26.456118 H    110 MOH     0.0372 ****
963 C1      4.723822  -26.884619   26.299847 C    110 MOH     0.1166 ****
964 HC2     5.312719  -27.787256   26.132263 H    110 MOH     0.0372 ****
965 HC3     5.096790  -26.327769   27.158275 H    110 MOH     0.0372 ****
966 O1      4.721513  -26.153039   25.123221 O    110 MOH    -0.6497 ****
967 HO1     5.358907  -25.443911   25.232823 H    110 MOH     0.4215 ****
968 HC1    -4.833634  -13.692892   27.144839 H    111 MOH     0.0372 ****
969 C1     -4.999911  -12.622465   27.263633 C    111 MOH     0.1166 ****
970 HC2    -4.646573  -12.301582   28.243683 H    111 MOH     0.0372 ****
971 HC3    -6.066855  -12.409360   27.191508 H    111 MOH     0.0372 ****
972 O1     -4.312864  -11.908031   26.253885 O    111 MOH    -0.6497 ****
973 HO1    -4.403508  -12.437937   25.459097 H    111 MOH     0.4215 ****
974 HC1    -2.355647  -14.141966   26.820985 H    112 MOH     0.0372 ****
975 C1     -2.088334  -15.146665   27.149789 C    112 MOH     0.1166 ****
976 HC2    -1.143789  -15.436113   26.689463 H    112 MOH     0.0372 ****
977 HC3    -2.851014  -15.860283   26.840076 H    112 MOH     0.0372 ****
978 O1     -1.920902  -15.138908   28.578852 O    112 MOH    -0.6497 ****
979 HO1    -2.749400  -14.951114   29.025743 H    112 MOH     0.4215 ****
980 HC1    15.578007  -13.005402   24.251359 H    113 MOH     0.0372 ****
981 C1     15.131138  -12.591439   23.347676 C    113 MOH     0.1166 ****
982 HC2    14.103454  -12.272597   23.519503 H    113 MOH     0.0372 ****
983 HC3    15.161737  -13.363844   22.578344 H    113 MOH     0.0372 ****
984 O1     15.941738  -11.527135   22.959475 O    113 MOH    -0.6497 ****
985 HO1    16.123603  -10.980899   23.727393 H    113 MOH     0.4215 ****
986 HC1     8.803956  -15.257708   18.845527 H    114 MOH     0.0372 ****
987 C1      7.879619  -14.742499   18.583898 C    114 MOH     0.1166 ****
988 HC2     7.166591  -14.789447   19.407677 H    114 MOH     0.0372 ****
989 HC3     7.443719  -15.188714   17.690822 H    114 MOH     0.0372 ****
990 O1      8.117487  -13.393238   18.304591 O    114 MOH    -0.6497 ****
991 HO1     8.622091  -13.363028   17.488589 H    114 MOH     0.4215 ****
992 HC1     0.525908   -8.064373   28.897757 H    115 MOH     0.0372 ****
993 C1      0.155249   -8.461191   29.842452 C    115 MOH     0.1166 ****
994 HC2     1.009728   -8.584073   30.507839 H    115 MOH     0.0372 ****
995 HC3    -0.316446   -9.436904   29.726486 H    115 MOH     0.0372 ****
996 O1     -0.699807   -7.525894   30.404602 O    115 MOH    -0.6497 ****
997 HO1    -0.515054   -7.524261   31.346468 H    115 MOH     0.4215 ****
998 HC1    -0.936520  -25.477388   19.385050 H    116 MOH     0.0372 ****
999 C1     -0.422678  -25.168344   20.295096 C    116 MOH     0.1166 ****
1000 HC2     0.660431  -25.194472   20.179131 H    116 MOH     0.0372 ****
1001 HC3    -0.725787  -25.807660   21.125240 H    116 MOH     0.0372 ****
1002 O1     -0.862042  -23.910939   20.577939 O    116 MOH    -0.6497 ****
1003 HO1    -1.194018  -23.548823   19.752745 H    116 MOH     0.4215 ****
1004 HC1     0.523599   -6.650609   25.822550 H    117 MOH     0.0372 ****
1005 C1      1.089979   -6.345648   26.702898 C    117 MOH     0.1166 ****
1006 HC2     1.475649   -7.239303   27.194337 H    117 MOH     0.0372 ****
1007 HC3     0.435841   -5.821865   27.399398 H    117 MOH     0.0372 ****
1008 O1      2.184635   -5.531193   26.297726 O    117 MOH    -0.6497 ****
1009 HO1     1.833606   -4.655908   26.120949 H    117 MOH     0.4215 ****
1010 HC1    -7.559882  -16.055425   25.219388 H    118 MOH     0.0372 ****
1011 C1     -7.001007  -15.423049   25.908817 C    118 MOH     0.1166 ****
1012 HC2    -6.955974  -14.422432   25.478189 H    118 MOH     0.0372 ****
1013 HC3    -5.987758  -15.817417   25.989427 H    118 MOH     0.0372 ****
1014 O1     -7.666115  -15.410801   27.197165 O    118 MOH    -0.6497 ****
1015 HO1    -7.199039  -16.028889   27.762851 H    118 MOH     0.4215 ****
1016 HC1     0.915042  -22.268556   23.118574 H    119 MOH     0.0372 ****
1017 C1      0.032851  -21.685169   23.379496 C    119 MOH     0.1166 ****
1018 HC2     0.337115  -20.686594   23.690623 H    119 MOH     0.0372 ****
1019 HC3    -0.502353  -22.175067   24.192669 H    119 MOH     0.0372 ****
1020 O1     -0.788141  -21.630056   22.212063 O    119 MOH    -0.6497 ****
1021 HO1    -0.878785  -22.518812   21.859216 H    119 MOH     0.4215 ****
1022 HC1     2.645361  -20.405719   28.184994 H    120 MOH     0.0372 ****
1023 C1      2.333592  -19.362236   28.149638 C    120 MOH     0.1166 ****
1024 HC2     3.139573  -18.704957   28.477736 H    120 MOH     0.0372 ****
1025 HC3     1.490660  -19.238945   28.828461 H    120 MOH     0.0372 ****
1026 O1      1.880372  -19.016042   26.855633 O    120 MOH    -0.6497 ****
1027 HO1     1.669062  -18.080337   26.885331 H    120 MOH     0.4215 ****
1028 HC1     9.341469  -12.392213   35.682447 H    121 MOH     0.0372 ****
1029 C1     10.266962  -12.092559   36.176007 C    121 MOH     0.1166 ****
1030 HC2    10.710944  -12.946614   36.687953 H    121 MOH     0.0372 ****
1031 HC3    10.021011  -11.340566   36.925541 H    121 MOH     0.0372 ****
1032 O1     11.149153  -11.593271   35.149995 O    121 MOH    -0.6497 ****
1033 HO1    10.958627  -10.655117   35.075042 H    121 MOH     0.4215 ****
1034 HC1     7.758375   -8.523244   31.030391 H    122 MOH     0.0372 ****
1035 C1      8.704075   -8.180316   31.450413 C    122 MOH     0.1166 ****
1036 HC2     8.590337   -7.205827   31.926296 H    122 MOH     0.0372 ****
1037 HC3     9.433845   -8.066823   30.648554 H    122 MOH     0.0372 ****
1038 O1      9.145748   -9.102549   32.422685 O    122 MOH    -0.6497 ****
1039 HO1     9.977132   -9.490793   32.140549 H    122 MOH     0.4215 ****
1040 HC1     7.676391  -16.589006   26.101150 H    123 MOH     0.0372 ****
1041 C1      8.458123  -15.915804   25.749718 C    123 MOH     0.1166 ****
1042 HC2     9.017576  -16.350589   24.921696 H    123 MOH     0.0372 ****
1043 HC3     9.143438  -15.710864   26.571376 H    123 MOH     0.0372 ****
1044 O1      7.884237  -14.716371   25.304241 O    123 MOH    -0.6497 ****
1045 HO1     8.079382  -14.072972   25.990134 H    123 MOH     0.4215 ****
1046 HC1    12.576247    6.151894   26.372679 H    124 MOH     0.0372 ****
1047 C1     11.539904    6.290698   26.679563 C    124 MOH     0.1166 ****
1048 HC2    10.976410    6.654856   25.821136 H    124 MOH     0.0372 ****
1049 HC3    11.470044    7.040650   27.467987 H    124 MOH     0.0372 ****
1050 O1     11.014515    5.047990   27.096756 O    124 MOH    -0.6497 ****
1051 HO1    10.251835    5.200267   27.658906 H    124 MOH     0.4215 ****
1052 HC1     7.074677   -4.389077   30.463999 H    125 MOH     0.0372 ****
1053 C1      6.273892   -4.783037   31.089788 C    125 MOH     0.1166 ****
1054 HC2     5.708089   -5.513393   30.510668 H    125 MOH     0.0372 ****
1055 HC3     5.601279   -4.006140   31.451120 H    125 MOH     0.0372 ****
1056 O1      6.770990   -5.524007   32.134185 O    125 MOH    -0.6497 ****
1057 HO1     7.315432   -4.927965   32.653201 H    125 MOH     0.4215 ****
1058 HC1    18.805280   -9.254580   21.557282 H    126 MOH     0.0372 ****
1059 C1     18.618218  -10.240500   21.982253 C    126 MOH     0.1166 ****
1060 HC2    18.226197  -10.145786   22.994830 H    126 MOH     0.0372 ****
1061 HC3    19.575465  -10.756934   22.050842 H    126 MOH     0.0372 ****
1062 O1     17.777019  -11.044341   21.133018 O    126 MOH    -0.6497 ****
1063 HO1    17.061104  -11.390535   21.670419 H    126 MOH     0.4215 ****
1064 HC1    21.435687   -8.782645   28.194186 H    127 MOH     0.0372 ****
1065 C1     20.586982   -8.347861   28.722395 C    127 MOH     0.1166 ****
1066 HC2    20.450728   -7.320708   28.384398 H    127 MOH     0.0372 ****
1067 HC3    20.751527   -8.360108   29.800026 H    127 MOH     0.0372 ****
1068 O1     19.421312   -9.045965   28.388640 O    127 MOH    -0.6497 ****
1069 HO1    19.448448   -9.846540   28.918263 H    127 MOH     0.4215 ****
1070 HC1    29.512240   -0.012247   24.574507 H    128 MOH     0.0372 ****
1071 C1     29.317673    0.729132   25.349496 C    128 MOH     0.1166 ****
1072 HC2    28.253617    0.771181   25.582134 H    128 MOH     0.0372 ****
1073 HC3    29.619050    1.717501   25.002306 H    128 MOH     0.0372 ****
1074 O1     29.987400    0.398859   26.560769 O    128 MOH    -0.6497 ****
1075 HO1    29.769738   -0.495613   26.833006 H    128 MOH     0.4215 ****
1076 HC1    20.330062   -1.706886   18.580362 H    129 MOH     0.0372 ****
1077 C1     19.537937   -2.239242   19.106450 C    129 MOH     0.1166 ****
1078 HC2    19.565073   -1.981637   20.164989 H    129 MOH     0.0372 ****
1079 HC3    19.703637   -3.306811   18.964321 H    129 MOH     0.0372 ****
1080 O1     18.309336   -1.823645   18.550664 O    129 MOH    -0.6497 ****
1081 HO1    17.614783   -2.182495   19.108571 H    129 MOH     0.4215 ****
1082 HC1    21.026346    6.184145   17.461012 H    130 MOH     0.0372 ****
1083 C1     21.563859    6.526666   16.576422 C    130 MOH     0.1166 ****
1084 HC2    21.235924    5.952668   15.709509 H    130 MOH     0.0372 ****
1085 HC3    22.623297    6.342137   16.754613 H    130 MOH     0.0372 ****
1086 O1     21.303474    7.907361   16.307721 O    130 MOH    -0.6497 ****
1087 HO1    21.562705    8.112302   15.406867 H    130 MOH     0.4215 ****
1088 HC1    11.687705   -0.620945   35.426474 H    131 MOH     0.0372 ****
1089 C1     10.667527   -0.913659   35.674669 C    131 MOH     0.1166 ****
1090 HC2    10.506447   -0.856096   36.750178 H    131 MOH     0.0372 ****
1091 HC3    10.459104   -1.935913   35.357885 H    131 MOH     0.0372 ****
1092 O1      9.781295   -0.021229   35.073628 O    131 MOH    -0.6497 ****
1093 HO1    10.232783    0.355176   34.314195 H    131 MOH     0.4215 ****
1094 HC1    24.395185    4.351927   26.103271 H    132 MOH     0.0372 ****
1095 C1     24.443682    3.264354   26.052360 C    132 MOH     0.1166 ****
1096 HC2    24.065518    2.909586   25.094230 H    132 MOH     0.0372 ****
1097 HC3    23.836887    2.817730   26.840077 H    132 MOH     0.0372 ****
1098 O1     25.780248    2.829977   26.125899 O    132 MOH    -0.6497 ****
1099 HO1    25.747917    1.870594   26.147112 H    132 MOH     0.4215 ****
1100 HC1    15.484938    3.327224   20.529856 H    133 MOH     0.0372 ****
1101 C1     15.530549    2.872435   19.539906 C    133 MOH     0.1166 ****
1102 HC2    16.447958    2.293539   19.431012 H    133 MOH     0.0372 ****
1103 HC3    15.520157    3.650148   18.776938 H    133 MOH     0.0372 ****
1104 O1     14.427232    2.035934   19.322824 O    133 MOH    -0.6497 ****
1105 HO1    14.686463    1.148403   19.580211 H    133 MOH     0.4215 ****
1106 HC1    23.592091   -1.229644   19.025132 H    134 MOH     0.0372 ****
1107 C1     23.790699   -0.269035   19.499601 C    134 MOH     0.1166 ****
1108 HC2    24.855333   -0.051847   19.416162 H    134 MOH     0.0372 ****
1109 HC3    23.561491   -0.304145   20.564504 H    134 MOH     0.0372 ****
1110 O1     22.997420    0.726682   18.848356 O    134 MOH    -0.6497 ****
1111 HO1    23.044763    1.502762   19.411920 H    134 MOH     0.4215 ****
1112 HC1     6.286594    2.165757   31.630725 H    135 MOH     0.0372 ****
1113 C1      7.326979    2.193110   31.304749 C    135 MOH     0.1166 ****
1114 HC2     7.911257    1.553385   31.967308 H    135 MOH     0.0372 ****
1115 HC3     7.668193    3.226795   31.358489 H    135 MOH     0.0372 ****
1116 O1      7.393951    1.710969   29.981752 O    135 MOH    -0.6497 ****
1117 HO1     6.799281    0.958159   29.937911 H    135 MOH     0.4215 ****
1118 HC1     9.166994   -2.516442   27.470816 H    136 MOH     0.0372 ****
1119 C1     10.081517   -2.210256   26.963113 C    136 MOH     0.1166 ****
1120 HC2    10.676765   -1.555834   27.600216 H    136 MOH     0.0372 ****
1121 HC3     9.806121   -1.664020   26.060845 H    136 MOH     0.0372 ****
1122 O1     10.783575   -3.349677   26.565012 O    136 MOH    -0.6497 ****
1123 HO1    11.718305   -3.150860   26.654815 H    136 MOH     0.4215 ****
1124 HC1    22.433349   -6.696905   24.037105 H    137 MOH     0.0372 ****
1125 C1     22.480691   -5.973489   24.851692 C    137 MOH     0.1166 ****
1126 HC2    21.687412   -5.245990   24.680572 H    137 MOH     0.0372 ****
1127 HC3    23.441402   -5.459912   24.805023 H    137 MOH     0.0372 ****
1128 O1     22.295362   -6.615255   26.145698 O    137 MOH    -0.6497 ****
1129 HO1    22.103682   -5.939604   26.801186 H    137 MOH     0.4215 ****
1130 HC1     6.112811   -2.854064   22.615113 H    138 MOH     0.0372 ****
1131 C1      6.155535   -2.612381   23.677188 C    138 MOH     0.1166 ****
1132 HC2     7.192456   -2.674434   24.008114 H    138 MOH     0.0372 ****
1133 HC3     5.557978   -3.314159   24.259137 H    138 MOH     0.0372 ****
1134 O1      5.721945   -1.318642   23.946595 O    138 MOH    -0.6497 ****
1135 HO1     4.952337   -1.127173   23.405659 H    138 MOH     0.4215 ****
1136 HC1     3.509539    1.083491   30.330355 H    139 MOH     0.0372 ****
1137 C1      3.074794    0.198001   30.793510 C    139 MOH     0.1166 ****
1138 HC2     2.662566   -0.476834   30.043270 H    139 MOH     0.0372 ****
1139 HC3     2.252647    0.484183   31.450413 H    139 MOH     0.0372 ****
1140 O1      3.980079   -0.504595   31.589006 O    139 MOH    -0.6497 ****
1141 HO1     3.453536   -1.222295   31.949630 H    139 MOH     0.4215 ****
1142 HC1     9.422183   -0.744645   23.001901 H    140 MOH     0.0372 ****
1143 C1      8.881783    0.124924   22.628548 C    140 MOH     0.1166 ****
1144 HC2     8.438378   -0.204532   21.688804 H    140 MOH     0.0372 ****
1145 HC3     9.604626    0.927949   22.482177 H    140 MOH     0.0372 ****
1146 O1      7.890473    0.463362   23.622033 O    140 MOH    -0.6497 ****
1147 HO1     7.254810   -0.250664   23.704765 H    140 MOH     0.4215 ****
1148 HC1     7.865647   -7.516667   18.692792 H    141 MOH     0.0372 ****
1149 C1      8.278452   -6.509111   18.656023 C    141 MOH     0.1166 ****
1150 HC2     8.193004   -6.038400   19.635365 H    141 MOH     0.0372 ****
1151 HC3     7.701679   -5.921233   17.941845 H    141 MOH     0.0372 ****
1152 O1      9.617905   -6.564632   18.224687 O    141 MOH    -0.6497 ****
1153 HO1     9.651391   -7.225178   17.528894 H    141 MOH     0.4215 ****
1154 HC1    23.978915   -9.359908   24.641682 H    142 MOH     0.0372 ****
1155 C1     23.298797   -9.928598   25.275956 C    142 MOH     0.1166 ****
1156 HC2    23.653290   -9.891448   26.306211 H    142 MOH     0.0372 ****
1157 HC3    23.243948  -10.965141   24.944323 H    142 MOH     0.0372 ****
1158 O1     22.066154   -9.305611   25.193932 O    142 MOH    -0.6497 ****
1159 HO1    22.168345   -8.412772   25.529808 H    142 MOH     0.4215 ****
1160 HC1    17.846878   -2.896521   29.625370 H    143 MOH     0.0372 ****
1161 C1     17.706582   -3.050839   28.556225 C    143 MOH     0.1166 ****
1162 HC2    17.510283   -2.096355   28.066907 H    143 MOH     0.0372 ****
1163 HC3    16.872311   -3.729756   28.380155 H    143 MOH     0.0372 ****
1164 O1     18.882067   -3.605240   28.004681 O    143 MOH    -0.6497 ****
1165 HO1    19.528699   -3.706078   28.706838 H    143 MOH     0.4215 ****
1166 HC1    15.303073   -3.102687   22.256610 H    144 MOH     0.0372 ****
1167 C1     15.141992   -4.115551   22.625013 C    144 MOH     0.1166 ****
1168 HC2    14.390859   -4.070644   23.412730 H    144 MOH     0.0372 ****
1169 HC3    16.066907   -4.516042   23.040085 H    144 MOH     0.0372 ****
1170 O1     14.690504   -4.962258   21.568595 O    144 MOH    -0.6497 ****
1171 HO1    15.095227   -5.820396   21.718502 H    144 MOH     0.4215 ****
1172 HC1    19.104347    9.941254   22.043771 H    145 MOH     0.0372 ****
1173 C1     18.523533   10.322558   22.883814 C    145 MOH     0.1166 ****
1174 HC2    18.820868   11.329707   23.175849 H    145 MOH     0.0372 ****
1175 HC3    18.731379    9.667320   23.730221 H    145 MOH     0.0372 ****
1176 O1     17.144243   10.278876   22.598850 O    145 MOH    -0.6497 ****
1177 HO1    16.738943    9.604041   23.148272 H    145 MOH     0.4215 ****
1178 HC1     7.682049   -0.415597   33.069687 H    146 MOH     0.0372 ****
1179 C1      7.290606   -1.184736   32.405007 C    146 MOH     0.1166 ****
1180 HC2     7.790014   -1.150852   31.436978 H    146 MOH     0.0372 ****
1181 HC3     6.219044   -1.022254   32.280556 H    146 MOH     0.0372 ****
1182 O1      7.431479   -2.451531   32.989784 O    146 MOH    -0.6497 ****
1183 HO1     6.985187   -2.451939   33.839019 H    146 MOH     0.4215 ****
1184 HC1    23.902128   -2.847532   28.689161 H    147 MOH     0.0372 ****
1185 C1     23.885385   -3.854680   28.271261 C    147 MOH     0.1166 ****
1186 HC2    24.387102   -4.513185   28.979075 H    147 MOH     0.0372 ****
1187 HC3    24.436754   -3.883258   27.330809 H    147 MOH     0.0372 ****
1188 O1     22.542468   -4.290281   28.122061 O    147 MOH    -0.6497 ****
1189 HO1    22.050565   -4.029410   28.904828 H    147 MOH     0.4215 ****
1190 HC1    18.036826    0.943462   27.820834 H    148 MOH     0.0372 ****
1191 C1     16.973347    1.144320   27.689312 C    148 MOH     0.1166 ****
1192 HC2    16.391378    0.223312   27.716182 H    148 MOH     0.0372 ****
1193 HC3    16.808225    1.615030   26.719868 H    148 MOH     0.0372 ****
1194 O1     16.523014    2.034710   28.668655 O    148 MOH    -0.6497 ****
1195 HO1    16.633288    2.929182   28.338436 H    148 MOH     0.4215 ****
1196 HC1    21.749766    3.871010   25.024226 H    149 MOH     0.0372 ****
1197 C1     21.345621    4.216797   24.073168 C    149 MOH     0.1166 ****
1198 HC2    20.412623    3.693422   23.861036 H    149 MOH     0.0372 ****
1199 HC3    22.066731    4.071869   23.269187 H    149 MOH     0.0372 ****
1200 O1     21.099092    5.582796   24.227317 O    149 MOH    -0.6497 ****
1201 HO1    21.923548    6.038401   24.415407 H    149 MOH     0.4215 ****
1202 HC1    17.517211   -7.384803   30.227825 H    150 MOH     0.0372 ****
1203 C1     17.331304   -6.798967   29.327678 C    150 MOH     0.1166 ****
1204 HC2    17.349202   -7.422770   28.433895 H    150 MOH     0.0372 ****
1205 HC3    18.078973   -6.013497   29.218784 H    150 MOH     0.0372 ****
1206 O1     16.088846   -6.210681   29.457079 O    150 MOH    -0.6497 ****
1207 HO1    15.790356   -6.100046   28.551275 H    150 MOH     0.4215 ****
1208 HC1    18.701934   -3.809773   31.646988 H    151 MOH     0.0372 ****
1209 C1     19.455953   -4.563399   31.419300 C    151 MOH     0.1166 ****
1210 HC2    18.969824   -5.452972   31.019785 H    151 MOH     0.0372 ****
1211 HC3    19.944969   -4.852847   32.349146 H    151 MOH     0.0372 ****
1212 O1     20.390106   -4.021245   30.474605 O    151 MOH    -0.6497 ****
1213 HO1    20.606612   -3.123507   30.734114 H    151 MOH     0.4215 ****
1214 HC1    16.947366    4.542987   22.560666 H    152 MOH     0.0372 ****
1215 C1     16.710075    4.256397   23.585971 C    152 MOH     0.1166 ****
1216 HC2    17.472178    3.593810   23.995386 H    152 MOH     0.0372 ****
1217 HC3    15.756870    3.727715   23.566879 H    152 MOH     0.0372 ****
1218 O1     16.608462    5.382754   24.423893 O    152 MOH    -0.6497 ****
1219 HO1    17.382111    5.939196   24.304392 H    152 MOH     0.4215 ****
1220 HC1    14.638543  -10.439317   28.912607 H    153 MOH     0.0372 ****
1221 C1     14.231511   -9.438700   28.767650 C    153 MOH     0.1166 ****
1222 HC2    13.185929   -9.484424   28.462180 H    153 MOH     0.0372 ****
1223 HC3    14.788076   -8.981054   27.950941 H    153 MOH     0.0372 ****
1224 O1     14.386241   -8.614855   29.924476 O    153 MOH    -0.6497 ****
1225 HO1    14.669142   -7.734672   29.664261 H    153 MOH     0.4215 ****
1226 HC1    14.044449   -6.033910   31.135043 H    154 MOH     0.0372 ****
1227 C1     14.132784   -5.047990   31.591127 C    154 MOH     0.1166 ****
1228 HC2    13.531762   -5.016147   32.499052 H    154 MOH     0.0372 ****
1229 HC3    13.780600   -4.312735   30.867757 H    154 MOH     0.0372 ****
1230 O1     15.472814   -4.844274   31.898718 O    154 MOH    -0.6497 ****
1231 HO1    15.957788   -5.310902   31.214946 H    154 MOH     0.4215 ****
1232 HC1    23.989308    5.758342   23.357576 H    155 MOH     0.0372 ****
1233 C1     24.409619    6.641792   23.838408 C    155 MOH     0.1166 ****
1234 HC2    24.663075    7.383579   23.081097 H    155 MOH     0.0372 ****
1235 HC3    25.296429    6.358876   24.404801 H    155 MOH     0.0372 ****
1236 O1     23.404452    7.138222   24.661481 O    155 MOH    -0.6497 ****
1237 HO1    23.760677    7.334589   25.530515 H    155 MOH     0.4215 ****
1238 HC1    16.008017  -10.871244   31.948923 H    156 MOH     0.0372 ****
1239 C1     17.084198  -10.863079   31.779217 C    156 MOH     0.1166 ****
1240 HC2    17.504509  -10.002899   32.298941 H    156 MOH     0.0372 ****
1241 HC3    17.288003  -10.802658   30.710072 H    156 MOH     0.0372 ****
1242 O1     17.677714  -12.007807   32.279849 O    156 MOH    -0.6497 ****
1243 HO1    17.215834  -12.269086   33.078880 H    156 MOH     0.4215 ****
1244 HC1    12.654190    3.796709   24.547636 H    157 MOH     0.0372 ****
1245 C1     12.071643    2.923874   24.843207 C    157 MOH     0.1166 ****
1246 HC2    12.407661    2.008990   24.356010 H    157 MOH     0.0372 ****
1247 HC3    11.051465    3.103912   24.505917 H    157 MOH     0.0372 ****
1248 O1     12.064715    2.776905   26.246107 O    157 MOH    -0.6497 ****
1249 HO1    11.878231    3.638717   26.627237 H    157 MOH     0.4215 ****
1250 HC1    11.823383    0.782204   28.818561 H    158 MOH     0.0372 ****
1251 C1     12.855108    0.498471   28.612793 C    158 MOH     0.1166 ****
1252 HC2    13.125885   -0.327415   29.269695 H    158 MOH     0.0372 ****
1253 HC3    13.503472    1.349261   28.823511 H    158 MOH     0.0372 ****
1254 O1     12.993094    0.179221   27.250906 O    158 MOH    -0.6497 ****
1255 HO1    12.696336    0.972039   26.798357 H    158 MOH     0.4215 ****
1256 HC1    17.317448    0.054705   23.132009 H    159 MOH     0.0372 ****
1257 C1     17.331882    0.762200   22.302572 C    159 MOH     0.1166 ****
1258 HC2    16.341149    1.193310   22.161151 H    159 MOH     0.0372 ****
1259 HC3    17.670786    0.269036   21.391819 H    159 MOH     0.0372 ****
1260 O1     18.208877    1.813847   22.609457 O    159 MOH    -0.6497 ****
1261 HO1    18.405176    1.820788   23.549202 H    159 MOH     0.4215 ****
1262 HC1    13.173805   -7.692622   37.010393 H    160 MOH     0.0372 ****
1263 C1     14.166270   -7.671802   36.559966 C    160 MOH     0.1166 ****
1264 HC2    14.689349   -6.760591   36.849880 H    160 MOH     0.0372 ****
1265 HC3    14.106226   -7.727323   35.473850 H    160 MOH     0.0372 ****
1266 O1     14.901237   -8.736513   37.008272 O    160 MOH    -0.6497 ****
1267 HO1    14.454368   -9.532597   36.712701 H    160 MOH     0.4215 ****
1268 HC1    11.113819    4.536863   30.015693 H    161 MOH     0.0372 ****
1269 C1     10.874219    3.904079   30.869878 C    161 MOH     0.1166 ****
1270 HC2     9.828637    4.028594   31.150599 H    161 MOH     0.0372 ****
1271 HC3    11.506417    4.211490   31.703557 H    161 MOH     0.0372 ****
1272 O1     11.176173    2.554002   30.553801 O    161 MOH    -0.6497 ****
1273 HO1    10.713715    2.280883   29.758306 H    161 MOH     0.4215 ****
1274 HC1     8.520362   -3.401525   20.915936 H    162 MOH     0.0372 ****
1275 C1      9.308445   -3.367232   20.163574 C    162 MOH     0.1166 ****
1276 HC2     8.888134   -2.975722   19.236557 H    162 MOH     0.0372 ****
1277 HC3     9.706239   -4.364991   19.976898 H    162 MOH     0.0372 ****
1278 O1     10.314767   -2.467044   20.513592 O    162 MOH    -0.6497 ****
1279 HO1    11.142109   -2.932039   20.370049 H    162 MOH     0.4215 ****
1280 HC1    11.724079   -4.022062   18.197817 H    163 MOH     0.0372 ****
1281 C1     12.154204   -4.591977   19.022304 C    163 MOH     0.1166 ****
1282 HC2    12.929586   -5.235784   18.607232 H    163 MOH     0.0372 ****
1283 HC3    11.408845   -5.240683   19.482630 H    163 MOH     0.0372 ****
1284 O1     12.723472   -3.697505   19.962049 O    163 MOH    -0.6497 ****
1285 HO1    13.138009   -4.236801   20.638750 H    163 MOH     0.4215 ****
1286 HC1    22.071350    4.693222   20.483187 H    164 MOH     0.0372 ****
1287 C1     22.814977    4.172298   19.880732 C    164 MOH     0.1166 ****
1288 HC2    23.730655    4.761808   19.832648 H    164 MOH     0.0372 ****
1289 HC3    22.478959    4.051048   18.850477 H    164 MOH     0.0372 ****
1290 O1     23.153304    2.943470   20.464802 O    164 MOH    -0.6497 ****
1291 HO1    22.449514    2.671985   21.058064 H    164 MOH     0.4215 ****
1292 HC1    22.787264   -0.983878   25.143020 H    165 MOH     0.0372 ****
1293 C1     22.748005   -2.053489   24.937959 C    165 MOH     0.1166 ****
1294 HC2    21.969736   -2.481741   25.569406 H    165 MOH     0.0372 ****
1295 HC3    23.716798   -2.489906   25.181911 H    165 MOH     0.0372 ****
1296 O1     22.459329   -2.345386   23.569708 O    165 MOH    -0.6497 ****
1297 HO1    22.888878   -3.159842   23.297472 H    165 MOH     0.4215 ****
1298 HC1    26.948805   -2.303745   22.896542 H    166 MOH     0.0372 ****
1299 C1     26.426303   -1.374572   23.124230 C    166 MOH     0.1166 ****
1300 HC2    25.394001   -1.587677   23.402831 H    166 MOH     0.0372 ****
1301 HC3    26.466718   -0.728315   22.248125 H    166 MOH     0.0372 ****
1302 O1     27.113927   -0.811189   24.190548 O    166 MOH    -0.6497 ****
1303 HO1    27.576385   -1.526440   24.633196 H    166 MOH     0.4215 ****
1304 HC1    21.821935   -0.159217   22.515411 H    167 MOH     0.0372 ****
1305 C1     20.884895    0.096755   22.022558 C    167 MOH     0.1166 ****
1306 HC2    20.046583   -0.235151   22.635620 H    167 MOH     0.0372 ****
1307 HC3    20.866420   -0.402124   21.053822 H    167 MOH     0.0372 ****
1308 O1     20.854296    1.480308   21.805476 O    167 MOH    -0.6497 ****
1309 HO1    19.938041    1.721583   21.653448 H    167 MOH     0.4215 ****
1310 HC1    11.875344   -0.861404   31.757297 H    168 MOH     0.0372 ****
1311 C1     10.865559   -0.462137   31.849221 C    168 MOH     0.1166 ****
1312 HC2    10.252990   -1.203516   32.362580 H    168 MOH     0.0372 ****
1313 HC3    10.464300   -0.270260   30.853615 H    168 MOH     0.0372 ****
1314 O1     10.933686    0.726682   32.611482 O    168 MOH    -0.6497 ****
1315 HO1    11.267972    1.419888   32.037311 H    168 MOH     0.4215 ****
1316 HC1    18.492356   -4.869177   20.807749 H    169 MOH     0.0372 ****
1317 C1     18.797774   -5.849381   20.440760 C    169 MOH     0.1166 ****
1318 HC2    19.746938   -5.769773   19.911137 H    169 MOH     0.0372 ****
1319 HC3    18.031053   -6.241708   19.773959 H    169 MOH     0.0372 ****
1320 O1     18.951349   -6.769981   21.514855 O    169 MOH    -0.6497 ****
1321 HO1    19.800631   -7.203949   21.406668 H    169 MOH     0.4215 ****
1322 HC1    24.333408   -7.517484   27.480715 H    170 MOH     0.0372 ****
1323 C1     25.204630   -7.014114   27.061401 C    170 MOH     0.1166 ****
1324 HC2    24.906717   -6.064936   26.618045 H    170 MOH     0.0372 ****
1325 HC3    25.643416   -7.625670   26.272270 H    170 MOH     0.0372 ****
1326 O1     26.173424   -6.738954   28.047108 O    170 MOH    -0.6497 ****
1327 HO1    26.603550   -7.577088   28.230249 H    170 MOH     0.4215 ****
1328 HC1     7.619118    6.374797   30.181156 H    171 MOH     0.0372 ****
1329 C1      8.481679    6.837751   29.701738 C    171 MOH     0.1166 ****
1330 HC2     9.268608    6.952469   30.447735 H    171 MOH     0.0372 ****
1331 HC3     8.164714    7.829794   29.379297 H    171 MOH     0.0372 ****
1332 O1      8.864463    6.050240   28.542790 O    171 MOH    -0.6497 ****
1333 HO1     8.170488    6.096372   27.881645 H    171 MOH     0.4215 ****
1334 HC1    15.778232   -1.193718   15.732843 H    172 MOH     0.0372 ****
1335 C1     16.701993   -1.005515   15.184835 C    172 MOH     0.1166 ****
1336 HC2    17.292622   -1.920400   15.222312 H    172 MOH     0.0372 ****
1337 HC3    17.224495   -0.182079   15.672032 H    172 MOH     0.0372 ****
1338 O1     16.428906   -0.653197   13.830726 O    172 MOH    -0.6497 ****
1339 HO1    17.210638   -0.231068   13.467273 H    172 MOH     0.4215 ****
1340 HC1    19.886079    8.062087   25.753960 H    173 MOH     0.0372 ****
1341 C1     18.871097    7.678742   25.650016 C    173 MOH     0.1166 ****
1342 HC2    18.149987    8.496055   25.671229 H    173 MOH     0.0372 ****
1343 HC3    18.636116    6.983904   26.456118 H    173 MOH     0.0372 ****
1344 O1     18.743503    6.966757   24.467733 O    173 MOH    -0.6497 ****
1345 HO1    19.464036    6.333564   24.435913 H    173 MOH     0.4215 ****
1346 HC1    13.364908   -5.931847   26.643501 H    174 MOH     0.0372 ****
1347 C1     14.221696   -6.189860   26.019833 C    174 MOH     0.1166 ****
1348 HC2    14.407603   -5.396634   25.296462 H    174 MOH     0.0372 ****
1349 HC3    13.975745   -7.093722   25.462633 H    174 MOH     0.0372 ****
1350 O1     15.385057   -6.380512   26.820985 O    174 MOH    -0.6497 ****
1351 HO1    16.081341   -6.728340   26.259542 H    174 MOH     0.4215 ****
1352 HC1    19.419580   -6.271918   25.826793 H    175 MOH     0.0372 ****
1353 C1     18.921327   -7.047590   25.246965 C    175 MOH     0.1166 ****
1354 HC2    19.648211   -7.793051   24.924524 H    175 MOH     0.0372 ****
1355 HC3    18.458869   -6.573614   24.380759 H    175 MOH     0.0372 ****
1356 O1     17.946182   -7.678334   26.043874 O    175 MOH    -0.6497 ****
1357 HO1    18.417877   -8.047390   26.793408 H    175 MOH     0.4215 ****
1358 HC1    18.744080    5.426845   21.533240 H    176 MOH     0.0372 ****
1359 C1     19.337019    5.088407   20.684005 C    176 MOH     0.1166 ****
1360 HC2    19.704214    4.092689   20.932199 H    176 MOH     0.0372 ****
1361 HC3    20.183992    5.758342   20.531977 H    176 MOH     0.0372 ****
1362 O1     18.532770    5.037376   19.513743 O    176 MOH    -0.6497 ****
1363 HO1    18.939802    4.387036   18.936037 H    176 MOH     0.4215 ****
1364 HC1    14.500556    5.747728   27.195751 H    177 MOH     0.0372 ****
1365 C1     14.681844    4.709552   27.475058 C    177 MOH     0.1166 ****
1366 HC2    14.022510    4.072277   26.886038 H    177 MOH     0.0372 ****
1367 HC3    14.457255    4.554826   28.530769 H    177 MOH     0.0372 ****
1368 O1     16.012059    4.313960   27.233935 O    177 MOH    -0.6497 ****
1369 HO1    16.191615    4.422146   26.297018 H    177 MOH     0.4215 ****
1370 HC1    18.389010   -0.040416   30.854322 H    178 MOH     0.0372 ****
1371 C1     18.842807    0.838950   31.311113 C    178 MOH     0.1166 ****
1372 HC2    19.679965    1.155751   30.688859 H    178 MOH     0.0372 ****
1373 HC3    19.146493    0.589919   32.327932 H    178 MOH     0.0372 ****
1374 O1     17.892489    1.836709   31.275757 O    178 MOH    -0.6497 ****
1375 HO1    17.564554    1.892231   30.374903 H    178 MOH     0.4215 ****
1376 HC1    17.758544   -2.639325   23.501825 H    179 MOH     0.0372 ****
1377 C1     18.685768   -2.816097   24.045591 C    179 MOH     0.1166 ****
1378 HC2    18.619950   -3.740779   24.619054 H    179 MOH     0.0372 ****
1379 HC3    18.909203   -1.979596   24.708150 H    179 MOH     0.0372 ****
1380 O1     19.689203   -2.918159   23.115038 O    179 MOH    -0.6497 ****
1381 HO1    20.499225   -2.577271   23.501825 H    179 MOH     0.4215 ****
1382 HC1    15.661607   -2.495213   18.228930 H    180 MOH     0.0372 ****
1383 C1     15.941622   -3.403566   18.762796 C    180 MOH     0.1166 ****
1384 HC2    16.749913   -3.899179   18.225395 H    180 MOH     0.0372 ****
1385 HC3    15.110815   -4.109427   18.786130 H    180 MOH     0.0372 ****
1386 O1     16.379254   -3.142287   20.082257 O    180 MOH    -0.6497 ****
1387 HO1    16.031689   -3.846924   20.633800 H    180 MOH     0.4215 ****
1388 HC1    26.605282   -0.196775   27.654664 H    181 MOH     0.0372 ****
1389 C1     25.595496   -0.517659   27.398691 C    181 MOH     0.1166 ****
1390 HC2    24.898057   -0.086957   28.117819 H    181 MOH     0.0372 ****
1391 HC3    25.514090   -1.604007   27.433339 H    181 MOH     0.0372 ****
1392 O1     25.240426   -0.058379   26.126606 O    181 MOH    -0.6497 ****
1393 HO1    25.839138   -0.465811   25.497281 H    181 MOH     0.4215 ****
1394 HC1    15.251111   -1.625644   35.151410 H    182 MOH     0.0372 ****
1395 C1     15.596367   -2.468677   34.553904 C    182 MOH     0.1166 ****
1396 HC2    16.336530   -3.000625   35.152824 H    182 MOH     0.0372 ****
1397 HC3    16.038040   -2.082883   33.635373 H    182 MOH     0.0372 ****
1398 O1     14.543857   -3.386419   34.220150 O    182 MOH    -0.6497 ****
1399 HO1    14.822717   -3.899587   33.458596 H    182 MOH     0.4215 ****
1400 HC1    20.316205  -13.305220   25.406771 H    183 MOH     0.0372 ****
1401 C1     20.283296  -12.220096   25.307776 C    183 MOH     0.1166 ****
1402 HC2    20.728433  -11.751019   26.185296 H    183 MOH     0.0372 ****
1403 HC3    19.245798  -11.894314   25.232823 H    183 MOH     0.0372 ****
1404 O1     20.969188  -11.842874   24.142464 O    183 MOH    -0.6497 ****
1405 HO1    21.070802  -10.889615   24.182769 H    183 MOH     0.4215 ****
1406 HC1    28.749561   -4.488282   26.589761 H    184 MOH     0.0372 ****
1407 C1     27.843698   -4.163724   26.078523 C    184 MOH     0.1166 ****
1408 HC2    26.958043   -4.556459   26.577740 H    184 MOH     0.0372 ****
1409 HC3    27.851204   -4.511960   25.045440 H    184 MOH     0.0372 ****
1410 O1     27.750745   -2.771597   26.092665 O    184 MOH    -0.6497 ****
1411 HO1    28.020945   -2.486232   26.968770 H    184 MOH     0.4215 ****
1412 HC1    21.283844    0.075526   28.574609 H    185 MOH     0.0372 ****
1413 C1     21.947220   -0.746278   28.844017 C    185 MOH     0.1166 ****
1414 HC2    22.963356   -0.360075   28.921799 H    185 MOH     0.0372 ****
1415 HC3    21.933363   -1.528890   28.085292 H    185 MOH     0.0372 ****
1416 O1     21.569055   -1.173305   30.130952 O    185 MOH    -0.6497 ****
1417 HO1    21.622749   -0.404166   30.702294 H    185 MOH     0.4215 ****
1418 HC1    15.770149   -0.961425   23.696987 H    186 MOH     0.0372 ****
1419 C1     15.139683   -1.274959   24.528544 C    186 MOH     0.1166 ****
1420 HC2    14.163383   -1.587677   24.158020 H    186 MOH     0.0372 ****
1421 HC3    14.969364   -0.447848   25.218681 H    186 MOH     0.0372 ****
1422 O1     15.741859   -2.329056   25.224338 O    186 MOH    -0.6497 ****
1423 HO1    15.091185   -2.683416   25.833864 H    186 MOH     0.4215 ****
1424 HC1    18.432311    3.770990   26.840784 H    187 MOH     0.0372 ****
1425 C1     19.088758    4.046557   27.665977 C    187 MOH     0.1166 ****
1426 HC2    18.542008    4.010631   28.609258 H    187 MOH     0.0372 ****
1427 HC3    19.435169    5.069219   27.515363 H    187 MOH     0.0372 ****
1428 O1     20.207663    3.174539   27.731031 O    187 MOH    -0.6497 ****
1429 HO1    20.812726    3.501138   28.401368 H    187 MOH     0.4215 ****
1430 HC1     7.770384   -6.296821   26.893817 H    188 MOH     0.0372 ****
1431 C1      8.414129   -5.512576   26.497130 C    188 MOH     0.1166 ****
1432 HC2     8.448193   -4.711185   27.234642 H    188 MOH     0.0372 ****
1433 HC3     8.015180   -5.072485   25.582134 H    188 MOH     0.0372 ****
1434 O1      9.725869   -5.977163   26.266613 O    188 MOH    -0.6497 ****
1435 HO1    10.168119   -5.190060   25.941344 H    188 MOH     0.4215 ****
1436 HC1    14.540393    0.843849   31.072111 H    189 MOH     0.0372 ****
1437 C1     14.703206    0.619721   32.126407 C    189 MOH     0.1166 ****
1438 HC2    15.270741   -0.307002   32.218331 H    189 MOH     0.0372 ****
1439 HC3    13.719401    0.502146   32.580369 H    189 MOH     0.0372 ****
1440 O1     15.396026    1.696272   32.718255 O    189 MOH    -0.6497 ****
1441 HO1    16.234339    1.786903   32.260050 H    189 MOH     0.4215 ****
1442 HC1    12.475788   -5.222312   35.831646 H    190 MOH     0.0372 ****
1443 C1     12.082613   -4.787527   36.750178 C    190 MOH     0.1166 ****
1444 HC2    11.898438   -3.722816   36.608757 H    190 MOH     0.0372 ****
1445 HC3    12.781784   -4.931639   37.573957 H    190 MOH     0.0372 ****
1446 O1     10.918097   -5.448481   37.078983 O    190 MOH    -0.6497 ****
1447 HO1    10.493745   -4.999000   37.813667 H    190 MOH     0.4215 ****
1448 HC1    14.262688    0.738930   21.736180 H    191 MOH     0.0372 ****
1449 C1     14.129320   -0.283732   21.383333 C    191 MOH     0.1166 ****
1450 HC2    13.130504   -0.361300   20.954827 H    191 MOH     0.0372 ****
1451 HC3    14.202643   -1.000616   22.200749 H    191 MOH     0.0372 ****
1452 O1     15.049616   -0.560933   20.371464 O    191 MOH    -0.6497 ****
1453 HO1    15.165663   -1.508886   20.279540 H    191 MOH     0.4215 ****
1454 HC1    16.449690   -8.535655   20.693904 H    192 MOH     0.0372 ****
1455 C1     15.712992   -8.189869   21.418689 C    192 MOH     0.1166 ****
1456 HC2    15.442214   -8.997792   22.099633 H    192 MOH     0.0372 ****
1457 HC3    14.804242   -7.890215   20.898258 H    192 MOH     0.0372 ****
1458 O1     16.152932   -7.108419   22.212770 O    192 MOH    -0.6497 ****
1459 HO1    17.100364   -7.177005   22.348534 H    192 MOH     0.4215 ****
1460 HC1    17.398277    8.019630   21.046044 H    193 MOH     0.0372 ****
1461 C1     16.550727    7.355001   21.215749 C    193 MOH     0.1166 ****
1462 HC2    15.685279    7.998809   21.372020 H    193 MOH     0.0372 ****
1463 HC3    16.783399    6.753243   22.093976 H    193 MOH     0.0372 ****
1464 O1     16.417359    6.653223   20.000233 O    193 MOH    -0.6497 ****
1465 HO1    17.263177    6.247424   19.795172 H    193 MOH     0.4215 ****
1466 HC1    15.286907  -10.786328   26.456118 H    194 MOH     0.0372 ****
1467 C1     16.322096  -10.482183   26.299847 C    194 MOH     0.1166 ****
1468 HC2    16.910993  -11.384820   26.132263 H    194 MOH     0.0372 ****
1469 HC3    16.695064   -9.925332   27.158275 H    194 MOH     0.0372 ****
1470 O1     16.319787   -9.750602   25.123221 O    194 MOH    -0.6497 ****
1471 HO1    16.957181   -9.041475   25.232823 H    194 MOH     0.4215 ****
1472 HC1     6.764640    2.709544   27.144839 H    195 MOH     0.0372 ****
1473 C1      6.598363    3.779971   27.263633 C    195 MOH     0.1166 ****
1474 HC2     6.951701    4.100854   28.243683 H    195 MOH     0.0372 ****
1475 HC3     5.531419    3.993077   27.191508 H    195 MOH     0.0372 ****
1476 O1      7.285410    4.494406   26.253885 O    195 MOH    -0.6497 ****
1477 HO1     7.194766    3.964499   25.459097 H    195 MOH     0.4215 ****
1478 HC1    13.427839    9.025553   24.295906 H    196 MOH     0.0372 ****
1479 C1     14.299061    8.370315   24.276814 C    196 MOH     0.1166 ****
1480 HC2    14.298483    7.798767   23.349090 H    196 MOH     0.0372 ****
1481 HC3    14.271348    7.661188   25.104836 H    196 MOH     0.0372 ****
1482 O1     15.477433    9.154968   24.350353 O    196 MOH    -0.6497 ****
1483 HO1    15.447988    9.665687   25.162819 H    196 MOH     0.4215 ****
1484 HC1     9.242627    2.260471   26.820985 H    197 MOH     0.0372 ****
1485 C1      9.509940    1.255772   27.149789 C    197 MOH     0.1166 ****
1486 HC2    10.454485    0.966324   26.689463 H    197 MOH     0.0372 ****
1487 HC3     8.747260    0.542154   26.840076 H    197 MOH     0.0372 ****
1488 O1      9.677372    1.263529   28.578852 O    197 MOH    -0.6497 ****
1489 HO1     8.848874    1.451323   29.025743 H    197 MOH     0.4215 ****
1490 HC1    27.176281    3.397034   24.251359 H    198 MOH     0.0372 ****
1491 C1     26.729412    3.810998   23.347676 C    198 MOH     0.1166 ****
1492 HC2    25.701729    4.129840   23.519503 H    198 MOH     0.0372 ****
1493 HC3    26.760012    3.038592   22.578344 H    198 MOH     0.0372 ****
1494 O1     27.540012    4.875301   22.959475 O    198 MOH    -0.6497 ****
1495 HO1    27.721877    5.421537   23.727393 H    198 MOH     0.4215 ****
1496 HC1    20.402230    1.144728   18.845527 H    199 MOH     0.0372 ****
1497 C1     19.477893    1.659938   18.583898 C    199 MOH     0.1166 ****
1498 HC2    18.764865    1.612989   19.407677 H    199 MOH     0.0372 ****
1499 HC3    19.041993    1.213722   17.690822 H    199 MOH     0.0372 ****
1500 O1     19.715761    3.009198   18.304591 O    199 MOH    -0.6497 ****
1501 HO1    20.220365    3.039409   17.488589 H    199 MOH     0.4215 ****
1502 HC1    10.661754   -9.074951   19.385050 H    200 MOH     0.0372 ****
1503 C1     11.175596   -8.765907   20.295096 C    200 MOH     0.1166 ****
1504 HC2    12.258705   -8.792035   20.179131 H    200 MOH     0.0372 ****
1505 HC3    10.872487   -9.405224   21.125240 H    200 MOH     0.0372 ****
1506 O1     10.736232   -7.508502   20.577939 O    200 MOH    -0.6497 ****
1507 HO1    10.404256   -7.146386   19.752745 H    200 MOH     0.4215 ****
1508 HC1    12.121873    9.751827   25.822550 H    201 MOH     0.0372 ****
1509 C1     12.688253   10.056789   26.702898 C    201 MOH     0.1166 ****
1510 HC2    13.073923    9.163133   27.194337 H    201 MOH     0.0372 ****
1511 HC3    12.034116   10.580571   27.399398 H    201 MOH     0.0372 ****
1512 O1     13.782910   10.871244   26.297726 O    201 MOH    -0.6497 ****
1513 HO1    13.431881   11.746528   26.120949 H    201 MOH     0.4215 ****
1514 HC1     4.038392    0.347011   25.219388 H    202 MOH     0.0372 ****
1515 C1      4.597267    0.979388   25.908817 C    202 MOH     0.1166 ****
1516 HC2     4.642300    1.980004   25.478189 H    202 MOH     0.0372 ****
1517 HC3     5.610516    0.585020   25.989427 H    202 MOH     0.0372 ****
1518 O1      3.932159    0.991635   27.197165 O    202 MOH    -0.6497 ****
1519 HO1     4.399236    0.373547   27.762851 H    202 MOH     0.4215 ****
1520 HC1    12.513316   -5.866120   23.118574 H    203 MOH     0.0372 ****
1521 C1     11.631125   -5.282733   23.379496 C    203 MOH     0.1166 ****
1522 HC2    11.935389   -4.284157   23.690623 H    203 MOH     0.0372 ****
1523 HC3    11.095921   -5.772631   24.192669 H    203 MOH     0.0372 ****
1524 O1     10.810133   -5.227619   22.212063 O    203 MOH    -0.6497 ****
1525 HO1    10.719489   -6.116376   21.859216 H    203 MOH     0.4215 ****
1526 HC1    14.243635   -4.003283   28.184994 H    204 MOH     0.0372 ****
1527 C1     13.931866   -2.959800   28.149638 C    204 MOH     0.1166 ****
1528 HC2    14.737847   -2.302520   28.477736 H    204 MOH     0.0372 ****
1529 HC3    13.088934   -2.836509   28.828461 H    204 MOH     0.0372 ****
1530 O1     13.478646   -2.613605   26.855633 O    204 MOH    -0.6497 ****
1531 HO1    13.267336   -1.677900   26.885331 H    204 MOH     0.4215 ****
1532 HC1     9.968934   -4.832435   29.001702 H    205 MOH     0.0372 ****
1533 C1     10.740274   -5.125557   29.714466 C    205 MOH     0.1166 ****
1534 HC2    11.638053   -5.381937   29.151609 H    205 MOH     0.0372 ****
1535 HC3    10.410029   -6.013905   30.253281 H    205 MOH     0.0372 ****
1536 O1     11.000659   -4.048190   30.623098 O    205 MOH    -0.6497 ****
1537 HO1    10.334396   -4.073093   31.313941 H    205 MOH     0.4215 ****
1538 HC1     9.839607   -4.221695   34.884830 H    206 MOH     0.0372 ****
1539 C1     10.322849   -4.372339   33.919630 C    206 MOH     0.1166 ****
1540 HC2    10.778379   -5.361933   33.899831 H    206 MOH     0.0372 ****
1541 HC3    11.083220   -3.603199   33.781037 H    206 MOH     0.0372 ****
1542 O1      9.291702   -4.322941   32.933216 O    206 MOH    -0.6497 ****
1543 HO1     8.779015   -3.521958   33.063323 H    206 MOH     0.4215 ****
1544 HC1     5.539502   -2.794051   28.551275 H    207 MOH     0.0372 ****
1545 C1      6.127245   -1.878350   28.612793 C    207 MOH     0.1166 ****
1546 HC2     6.593167   -1.667694   27.649714 H    207 MOH     0.0372 ****
1547 HC3     6.915905   -2.026953   29.349598 H    207 MOH     0.0372 ****
1548 O1      5.345513   -0.753626   28.988267 O    207 MOH    -0.6497 ****
1549 HO1     4.945409   -0.917742   29.845280 H    207 MOH     0.4215 ****
1550 HC1    19.274665   -0.186569   26.101150 H    208 MOH     0.0372 ****
1551 C1     20.056398    0.486632   25.749718 C    208 MOH     0.1166 ****
1552 HC2    20.615850    0.051848   24.921696 H    208 MOH     0.0372 ****
1553 HC3    20.741712    0.691573   26.571376 H    208 MOH     0.0372 ****
1554 O1     19.482511    1.686066   25.304241 O    208 MOH    -0.6497 ****
1555 HO1    19.677656    2.329465   25.990134 H    208 MOH     0.4215 ****
1556 HC1    30.403554    7.147856   21.557282 H    209 MOH     0.0372 ****
1557 C1     30.216492    6.161937   21.982253 C    209 MOH     0.1166 ****
1558 HC2    29.824471    6.256650   22.994830 H    209 MOH     0.0372 ****
1559 HC3    31.173739    5.645502   22.050842 H    209 MOH     0.0372 ****
1560 O1     29.375293    5.358096   21.133018 O    209 MOH    -0.6497 ****
1561 HO1    28.659378    5.011901   21.670419 H    209 MOH     0.4215 ****
1562 HC1    17.711085   13.548373   22.615113 H    210 MOH     0.0372 ****
1563 C1     17.753809   13.790056   23.677188 C    210 MOH     0.1166 ****
1564 HC2    18.790730   13.728002   24.008114 H    210 MOH     0.0372 ****
1565 HC3    17.156252   13.088277   24.259137 H    210 MOH     0.0372 ****
1566 O1     17.320219   15.083795   23.946595 O    210 MOH    -0.6497 ****
1567 HO1    16.550611   15.275263   23.405659 H    210 MOH     0.4215 ****
1568 HC1    19.463921    8.885769   18.692792 H    211 MOH     0.0372 ****
1569 C1     19.876726    9.893326   18.656023 C    211 MOH     0.1166 ****
1570 HC2    19.791278   10.364036   19.635365 H    211 MOH     0.0372 ****
1571 HC3    19.299953   10.481203   17.941845 H    211 MOH     0.0372 ****
1572 O1     21.216179    9.837804   18.224687 O    211 MOH    -0.6497 ****
1573 HO1    21.249665    9.177258   17.528894 H    211 MOH     0.4215 ****
1574 HC1    20.118636   13.000912   20.915936 H    212 MOH     0.0372 ****
1575 C1     20.906719   13.035205   20.163574 C    212 MOH     0.1166 ****
1576 HC2    20.486408   13.426715   19.236557 H    212 MOH     0.0372 ****
1577 HC3    21.304513   12.037446   19.976898 H    212 MOH     0.0372 ****
1578 O1     21.913041   13.935392   20.513592 O    212 MOH    -0.6497 ****
1579 HO1    22.740384   13.470397   20.370049 H    212 MOH     0.4215 ****
1580 HC1    23.322353   12.380374   18.197817 H    213 MOH     0.0372 ****
1581 C1     23.752479   11.810460   19.022304 C    213 MOH     0.1166 ****
1582 HC2    24.527860   11.166652   18.607232 H    213 MOH     0.0372 ****
1583 HC3    23.007119   11.161753   19.482630 H    213 MOH     0.0372 ****
1584 O1     24.321746   12.704932   19.962049 O    213 MOH    -0.6497 ****
1585 HO1    24.736283   12.165636   20.638750 H    213 MOH     0.4215 ****
1586 HC1    30.090630   11.533259   20.807749 H    214 MOH     0.0372 ****
1587 C1     30.396048   10.553055   20.440760 C    214 MOH     0.1166 ****
1588 HC2    31.345212   10.632664   19.911137 H    214 MOH     0.0372 ****
1589 HC3    29.629327   10.160729   19.773959 H    214 MOH     0.0372 ****
1590 O1     30.549623    9.632455   21.514855 O    214 MOH    -0.6497 ****
1591 HO1    31.398906    9.198487   21.406668 H    214 MOH     0.4215 ****
1592 HC1    27.376506   15.208719   15.732843 H    215 MOH     0.0372 ****
1593 C1     28.300267   15.396921   15.184835 C    215 MOH     0.1166 ****
1594 HC2    28.890896   14.482037   15.222312 H    215 MOH     0.0372 ****
1595 HC3    28.822769   16.220358   15.672032 H    215 MOH     0.0372 ****
1596 O1     28.027180   15.749239   13.830726 O    215 MOH    -0.6497 ****
1597 HO1    28.808912   16.171368   13.467273 H    215 MOH     0.4215 ****
1598 HC1    27.259881   13.907223   18.228930 H    216 MOH     0.0372 ****
1599 C1     27.539896   12.998871   18.762796 C    216 MOH     0.1166 ****
1600 HC2    28.348187   12.503257   18.225395 H    216 MOH     0.0372 ****
1601 HC3    26.709089   12.293009   18.786130 H    216 MOH     0.0372 ****
1602 O1     27.977528   13.260150   20.082257 O    216 MOH    -0.6497 ****
1603 HO1    27.629963   12.555513   20.633800 H    216 MOH     0.4215 ****
1604 HC1    28.047965    7.866781   20.693904 H    217 MOH     0.0372 ****
1605 C1     27.311266    8.212568   21.418689 C    217 MOH     0.1166 ****
1606 HC2    27.040488    7.404644   22.099633 H    217 MOH     0.0372 ****
1607 HC3    26.402516    8.512222   20.898258 H    217 MOH     0.0372 ****
1608 O1     27.751207    9.294017   22.212770 O    217 MOH    -0.6497 ****
1609 HO1    28.698638    9.225432   22.348534 H    217 MOH     0.4215 ****
1610 HC1    22.260028    7.327485   19.385050 H    218 MOH     0.0372 ****
1611 C1     22.773870    7.636529   20.295096 C    218 MOH     0.1166 ****
1612 HC2    23.856979    7.610401   20.179131 H    218 MOH     0.0372 ****
1613 HC3    22.470761    6.997213   21.125240 H    218 MOH     0.0372 ****
1614 O1     22.334506    8.893934   20.577939 O    218 MOH    -0.6497 ****
1615 HO1    22.002530    9.256050   19.752745 H    218 MOH     0.4215 ****
1616 HC1    24.111590   10.536317   23.118574 H    219 MOH     0.0372 ****
1617 C1     23.229399   11.119704   23.379496 C    219 MOH     0.1166 ****
1618 HC2    23.533663   12.118279   23.690623 H    219 MOH     0.0372 ****
1619 HC3    22.694195   10.629806   24.192669 H    219 MOH     0.0372 ****
1620 O1     22.408407   11.174817   22.212063 O    219 MOH    -0.6497 ****
1621 HO1    22.317763   10.286061   21.859216 H    219 MOH     0.4215 ****
1622 HC1     2.440979  -30.110353   16.628182 H    220 MOH     0.0372 ****
1623 C1      1.986604  -29.812331   15.683487 C    220 MOH     0.1166 ****
1624 HC2     0.905805  -29.947053   15.731570 H    220 MOH     0.0372 ****
1625 HC3     2.409225  -30.436951   14.895770 H    220 MOH     0.0372 ****
1626 O1      2.268351  -28.454906   15.423979 O    220 MOH    -0.6497 ****
1627 HO1     1.998729  -28.260580   14.523125 H    220 MOH     0.4215 ****
1628 HC1     3.481942  -27.196684   19.751473 H    221 MOH     0.0372 ****
1629 C1      3.140150  -27.866212   18.962341 C    221 MOH     0.1166 ****
1630 HC2     2.641897  -28.742313   19.378120 H    221 MOH     0.0372 ****
1631 HC3     4.012526  -28.184237   18.391706 H    221 MOH     0.0372 ****
1632 O1      2.358995  -27.136264   18.040274 O    221 MOH    -0.6497 ****
1633 HO1     2.386131  -27.623304   17.213666 H    221 MOH     0.4215 ****
1634 HC1     7.506073  -31.064837    7.838845 H    222 MOH     0.0372 ****
1635 C1      6.925259  -30.683533    8.678887 C    222 MOH     0.1166 ****
1636 HC2     7.222594  -29.676385    8.970923 H    222 MOH     0.0372 ****
1637 HC3     7.133105  -31.338772    9.525294 H    222 MOH     0.0372 ****
1638 O1      5.545969  -30.727216    8.393923 O    222 MOH    -0.6497 ****
1639 HO1     5.140669  -31.402050    8.943345 H    222 MOH     0.4215 ****
1640 HC1     6.742239  -32.939921   21.728543 H    223 MOH     0.0372 ****
1641 C1      6.699515  -32.065862   21.078712 C    223 MOH     0.1166 ****
1642 HC2     7.500299  -31.365716   21.317007 H    223 MOH     0.0372 ****
1643 HC3     5.760166  -31.549836   21.273873 H    223 MOH     0.0372 ****
1644 O1      6.700092  -32.420221   19.687126 O    223 MOH    -0.6497 ****
1645 HO1     6.809211  -31.627811   19.156089 H    223 MOH     0.4215 ****
1646 HC1    -3.979156  -34.631294   15.976229 H    224 MOH     0.0372 ****
1647 C1     -3.116595  -34.168341   15.496811 C    224 MOH     0.1166 ****
1648 HC2    -2.329666  -34.053623   16.242809 H    224 MOH     0.0372 ****
1649 HC3    -3.433560  -33.176297   15.174370 H    224 MOH     0.0372 ****
1650 O1     -2.733811  -34.955852   14.337863 O    224 MOH    -0.6497 ****
1651 HO1    -3.427786  -34.909719   13.676718 H    224 MOH     0.4215 ****
1652 HC1    -1.376461  -29.573914   14.320185 H    225 MOH     0.0372 ****
1653 C1     -2.284056  -29.637601   14.919812 C    225 MOH     0.1166 ****
1654 HC2    -2.894892  -30.484308   14.607271 H    225 MOH     0.0372 ****
1655 HC3    -2.833116  -28.705570   14.787583 H    225 MOH     0.0372 ****
1656 O1     -1.912242  -29.820905   16.244223 O    225 MOH    -0.6497 ****
1657 HO1    -1.385121  -30.623521   16.242809 H    225 MOH     0.4215 ****
1658 HC1     3.290261  -27.126058   12.683940 H    226 MOH     0.0372 ****
1659 C1      2.382667  -26.746387   12.214421 C    226 MOH     0.1166 ****
1660 HC2     2.513148  -26.766391   11.131841 H    226 MOH     0.0372 ****
1661 HC3     2.239484  -25.715560   12.536155 H    226 MOH     0.0372 ****
1662 O1      1.242400  -27.539613   12.588481 O    226 MOH    -0.6497 ****
1663 HO1     0.469328  -27.034610   12.326144 H    226 MOH     0.4215 ****
1664 HC1     1.829565  -31.980538   10.090980 H    227 MOH     0.0372 ****
1665 C1      2.700787  -32.635777   10.071888 C    227 MOH     0.1166 ****
1666 HC2     2.700209  -33.207324    9.144164 H    227 MOH     0.0372 ****
1667 HC3     2.673074  -33.344904   10.899910 H    227 MOH     0.0372 ****
1668 O1      3.879159  -31.851123   10.145427 O    227 MOH    -0.6497 ****
1669 HO1     3.849714  -31.340405   10.957893 H    227 MOH     0.4215 ****
1670 HC1     0.525908  -32.668028   14.692831 H    228 MOH     0.0372 ****
1671 C1      0.155249  -33.064845   15.637525 C    228 MOH     0.1166 ****
1672 HC2     1.009728  -33.187728   16.302913 H    228 MOH     0.0372 ****
1673 HC3    -0.316446  -34.040559   15.521560 H    228 MOH     0.0372 ****
1674 O1     -0.699806  -32.129549   16.199675 O    228 MOH    -0.6497 ****
1675 HO1    -0.515054  -32.127916   17.141541 H    228 MOH     0.4215 ****
1676 HC1     0.523599  -31.254264   11.617623 H    229 MOH     0.0372 ****
1677 C1      1.089979  -30.949303   12.497971 C    229 MOH     0.1166 ****
1678 HC2     1.475649  -31.842958   12.989410 H    229 MOH     0.0372 ****
1679 HC3     0.435842  -30.425520   13.194471 H    229 MOH     0.0372 ****
1680 O1      2.184636  -30.134847   12.092799 O    229 MOH    -0.6497 ****
1681 HO1     1.833607  -29.259563   11.916022 H    229 MOH     0.4215 ****
1682 HC1    12.576248  -18.451761   12.167752 H    230 MOH     0.0372 ****
1683 C1     11.539904  -18.312957   12.474637 C    230 MOH     0.1166 ****
1684 HC2    10.976410  -17.948799   11.616209 H    230 MOH     0.0372 ****
1685 HC3    11.470044  -17.563005   13.263061 H    230 MOH     0.0372 ****
1686 O1     11.014515  -19.555665   12.891830 O    230 MOH    -0.6497 ****
1687 HO1    10.251835  -19.403388   13.453980 H    230 MOH     0.4215 ****
1688 HC1     7.074677  -28.992732   16.259072 H    231 MOH     0.0372 ****
1689 C1      6.273892  -29.386692   16.884862 C    231 MOH     0.1166 ****
1690 HC2     5.708089  -30.117048   16.305741 H    231 MOH     0.0372 ****
1691 HC3     5.601279  -28.609795   17.246193 H    231 MOH     0.0372 ****
1692 O1      6.770991  -30.127662   17.929258 O    231 MOH    -0.6497 ****
1693 HO1     7.315432  -29.531620   18.448275 H    231 MOH     0.4215 ****
1694 HC1    19.184021  -27.753698   20.765464 H    232 MOH     0.0372 ****
1695 C1     19.245220  -26.973944   21.523482 C    232 MOH     0.1166 ****
1696 HC2    19.605487  -27.419751   22.451206 H    232 MOH     0.0372 ****
1697 HC3    18.252178  -26.548549   21.669146 H    232 MOH     0.0372 ****
1698 O1     20.116442  -25.951282   21.095683 O    232 MOH    -0.6497 ****
1699 HO1    21.003252  -26.311357   21.029215 H    232 MOH     0.4215 ****
1700 HC1    25.442498  -23.004546   14.984866 H    233 MOH     0.0372 ****
1701 C1     25.876088  -22.811445   15.965623 C    233 MOH     0.1166 ****
1702 HC2    26.161877  -21.760614   16.016535 H    233 MOH     0.0372 ****
1703 HC3    26.764053  -23.430757   16.092195 H    233 MOH     0.0372 ****
1704 O1     24.921728  -23.126204   16.973250 O    233 MOH    -0.6497 ****
1705 HO1    25.122646  -24.017818   17.265992 H    233 MOH     0.4215 ****
1706 HC1    29.512240  -24.615902   10.369580 H    234 MOH     0.0372 ****
1707 C1     29.317673  -23.874523   11.144569 C    234 MOH     0.1166 ****
1708 HC2    28.253617  -23.832474   11.377207 H    234 MOH     0.0372 ****
1709 HC3    29.619050  -22.886154   10.797380 H    234 MOH     0.0372 ****
1710 O1     29.987400  -24.204796   12.355843 O    234 MOH    -0.6497 ****
1711 HO1    29.769739  -25.099268   12.628079 H    234 MOH     0.4215 ****
1712 HC1    13.625870  -19.903084   16.836778 H    235 MOH     0.0372 ****
1713 C1     14.229779  -19.351540   17.557320 C    235 MOH     0.1166 ****
1714 HC2    15.041533  -19.986775   17.910874 H    235 MOH     0.0372 ****
1715 HC3    13.581414  -19.065767   18.386049 H    235 MOH     0.0372 ****
1716 O1     14.734383  -18.227633   16.901832 O    235 MOH    -0.6497 ****
1717 HO1    15.547292  -17.965946   17.340946 H    235 MOH     0.4215 ****
1718 HC1    20.330062  -26.310541    4.375436 H    236 MOH     0.0372 ****
1719 C1     19.537937  -26.842897    4.901523 C    236 MOH     0.1166 ****
1720 HC2    19.565073  -26.585292    5.960062 H    236 MOH     0.0372 ****
1721 HC3    19.703637  -27.910466    4.759395 H    236 MOH     0.0372 ****
1722 O1     18.309336  -26.427300    4.345737 O    236 MOH    -0.6497 ****
1723 HO1    17.614783  -26.786150    4.903644 H    236 MOH     0.4215 ****
1724 HC1    21.026346  -18.419510    3.256086 H    237 MOH     0.0372 ****
1725 C1     21.563859  -18.076989    2.371495 C    237 MOH     0.1166 ****
1726 HC2    21.235924  -18.650986    1.504582 H    237 MOH     0.0372 ****
1727 HC3    22.623297  -18.261518    2.549686 H    237 MOH     0.0372 ****
1728 O1     21.303474  -16.696294    2.102794 O    237 MOH    -0.6497 ****
1729 HO1    21.562705  -16.491353    1.201940 H    237 MOH     0.4215 ****
1730 HC1    11.687705  -25.224600   21.221548 H    238 MOH     0.0372 ****
1731 C1     10.667528  -25.517314   21.469742 C    238 MOH     0.1166 ****
1732 HC2    10.506447  -25.459751   22.545251 H    238 MOH     0.0372 ****
1733 HC3    10.459104  -26.539568   21.152958 H    238 MOH     0.0372 ****
1734 O1      9.781295  -24.624884   20.868701 O    238 MOH    -0.6497 ****
1735 HO1    10.232783  -24.248479   20.109269 H    238 MOH     0.4215 ****
1736 HC1    24.395185  -20.251728   11.898345 H    239 MOH     0.0372 ****
1737 C1     24.443682  -21.339301   11.847433 C    239 MOH     0.1166 ****
1738 HC2    24.065518  -21.694069   10.889303 H    239 MOH     0.0372 ****
1739 HC3    23.836887  -21.785925   12.635150 H    239 MOH     0.0372 ****
1740 O1     25.780248  -21.773678   11.920972 O    239 MOH    -0.6497 ****
1741 HO1    25.747917  -22.733061   11.942185 H    239 MOH     0.4215 ****
1742 HC1    15.484938  -21.276431    6.324929 H    240 MOH     0.0372 ****
1743 C1     15.530549  -21.731220    5.334980 C    240 MOH     0.1166 ****
1744 HC2    16.447959  -22.310116    5.226085 H    240 MOH     0.0372 ****
1745 HC3    15.520157  -20.953507    4.572011 H    240 MOH     0.0372 ****
1746 O1     14.427233  -22.567721    5.117898 O    240 MOH    -0.6497 ****
1747 HO1    14.686463  -23.455252    5.375285 H    240 MOH     0.4215 ****
1748 HC1    23.592091  -25.833299    4.820206 H    241 MOH     0.0372 ****
1749 C1     23.790699  -24.872690    5.294675 C    241 MOH     0.1166 ****
1750 HC2    24.855333  -24.655502    5.211236 H    241 MOH     0.0372 ****
1751 HC3    23.561491  -24.907800    6.359577 H    241 MOH     0.0372 ****
1752 O1     22.997420  -23.876973    4.643429 O    241 MOH    -0.6497 ****
1753 HO1    23.044763  -23.100893    5.206993 H    241 MOH     0.4215 ****
1754 HC1     6.286594  -22.437897   17.425798 H    242 MOH     0.0372 ****
1755 C1      7.326979  -22.410545   17.099822 C    242 MOH     0.1166 ****
1756 HC2     7.911257  -23.050270   17.762381 H    242 MOH     0.0372 ****
1757 HC3     7.668193  -21.376860   17.153562 H    242 MOH     0.0372 ****
1758 O1      7.393952  -22.892686   15.776825 O    242 MOH    -0.6497 ****
1759 HO1     6.799281  -23.645496   15.732985 H    242 MOH     0.4215 ****
1760 HC1     9.166994  -27.120097   13.265889 H    243 MOH     0.0372 ****
1761 C1     10.081517  -26.813911   12.758187 C    243 MOH     0.1166 ****
1762 HC2    10.676765  -26.159489   13.395290 H    243 MOH     0.0372 ****
1763 HC3     9.806121  -26.267675   11.855918 H    243 MOH     0.0372 ****
1764 O1     10.783575  -27.953332   12.360085 O    243 MOH    -0.6497 ****
1765 HO1    11.718305  -27.754515   12.449888 H    243 MOH     0.4215 ****
1766 HC1     6.112811  -27.457719    8.410187 H    244 MOH     0.0372 ****
1767 C1      6.155535  -27.216036    9.472261 C    244 MOH     0.1166 ****
1768 HC2     7.192456  -27.278089    9.803187 H    244 MOH     0.0372 ****
1769 HC3     5.557978  -27.917814   10.054210 H    244 MOH     0.0372 ****
1770 O1      5.721945  -25.922297    9.741669 O    244 MOH    -0.6497 ****
1771 HO1     4.952337  -25.730828    9.200732 H    244 MOH     0.4215 ****
1772 HC1     3.509539  -23.520164   16.125429 H    245 MOH     0.0372 ****
1773 C1      3.074794  -24.405654   16.588584 C    245 MOH     0.1166 ****
1774 HC2     2.662566  -25.080489   15.838344 H    245 MOH     0.0372 ****
1775 HC3     2.252647  -24.119472   17.245486 H    245 MOH     0.0372 ****
1776 O1      3.980079  -25.108250   17.384079 O    245 MOH    -0.6497 ****
1777 HO1     3.453536  -25.825950   17.744703 H    245 MOH     0.4215 ****
1778 HC1    29.191234  -22.586092   14.151187 H    246 MOH     0.0372 ****
1779 C1     29.273795  -21.646304   14.697073 C    246 MOH     0.1166 ****
1780 HC2    28.447029  -20.990657   14.424130 H    246 MOH     0.0372 ****
1781 HC3    30.231041  -21.184167   14.452415 H    246 MOH     0.0372 ****
1782 O1     29.232803  -22.004338   16.038455 O    246 MOH    -0.6497 ****
1783 HO1    29.456815  -21.261326   16.602726 H    246 MOH     0.4215 ****
1784 HC1    17.098632  -17.961863   13.894507 H    247 MOH     0.0372 ****
1785 C1     16.432947  -17.102909   13.979360 C    247 MOH     0.1166 ****
1786 HC2    15.390830  -17.422975   13.972289 H    247 MOH     0.0372 ****
1787 HC3    16.568047  -16.478289   13.096891 H    247 MOH     0.0372 ****
1788 O1     16.658691  -16.306008   15.182856 O    247 MOH    -0.6497 ****
1789 HO1    16.585945  -16.873065   15.952895 H    247 MOH     0.4215 ****
1790 HC1     9.422183  -25.348300    8.796974 H    248 MOH     0.0372 ****
1791 C1      8.881783  -24.478731    8.423622 C    248 MOH     0.1166 ****
1792 HC2     8.438378  -24.808187    7.483877 H    248 MOH     0.0372 ****
1793 HC3     9.604626  -23.675706    8.277251 H    248 MOH     0.0372 ****
1794 O1      7.890473  -24.140293    9.417107 O    248 MOH    -0.6497 ****
1795 HO1     7.254810  -24.854319    9.499838 H    248 MOH     0.4215 ****
1796 HC1     7.865647  -32.120322    4.487866 H    249 MOH     0.0372 ****
1797 C1      8.278452  -31.112765    4.451096 C    249 MOH     0.1166 ****
1798 HC2     8.193004  -30.642055    5.430439 H    249 MOH     0.0372 ****
1799 HC3     7.701679  -30.524888    3.736918 H    249 MOH     0.0372 ****
1800 O1      9.617905  -31.168287    4.019761 O    249 MOH    -0.6497 ****
1801 HO1     9.651391  -31.828833    3.323968 H    249 MOH     0.4215 ****
1802 HC1    14.039253  -13.707916   16.628182 H    250 MOH     0.0372 ****
1803 C1     13.584878  -13.409895   15.683487 C    250 MOH     0.1166 ****
1804 HC2    12.504079  -13.544617   15.731570 H    250 MOH     0.0372 ****
1805 HC3    14.007499  -14.034515   14.895770 H    250 MOH     0.0372 ****
1806 O1     13.866625  -12.052469   15.423979 O    250 MOH    -0.6497 ****
1807 HO1    13.597003  -11.858143   14.523125 H    250 MOH     0.4215 ****
1808 HC1    15.080216  -10.794248   19.751473 H    251 MOH     0.0372 ****
1809 C1     14.738424  -11.463775   18.962341 C    251 MOH     0.1166 ****
1810 HC2    14.240171  -12.339876   19.378120 H    251 MOH     0.0372 ****
1811 HC3    15.610801  -11.781801   18.391706 H    251 MOH     0.0372 ****
1812 O1     13.957269  -10.733827   18.040274 O    251 MOH    -0.6497 ****
1813 HO1    13.984405  -11.220867   17.213666 H    251 MOH     0.4215 ****
1814 HC1    17.846878  -27.500176   15.420444 H    252 MOH     0.0372 ****
1815 C1     17.706582  -27.654494   14.351298 C    252 MOH     0.1166 ****
1816 HC2    17.510283  -26.700010   13.861980 H    252 MOH     0.0372 ****
1817 HC3    16.872311  -28.333411   14.175229 H    252 MOH     0.0372 ****
1818 O1     18.882067  -28.208895   13.799755 O    252 MOH    -0.6497 ****
1819 HO1    19.528700  -28.309733   14.501912 H    252 MOH     0.4215 ****
1820 HC1    20.610077  -19.463809   16.710913 H    253 MOH     0.0372 ****
1821 C1     21.092741  -20.429724   16.563835 C    253 MOH     0.1166 ****
1822 HC2    20.319669  -21.183759   16.416050 H    253 MOH     0.0372 ****
1823 HC3    21.657390  -20.672224   17.463275 H    253 MOH     0.0372 ****
1824 O1     22.000913  -20.401963   15.440950 O    253 MOH    -0.6497 ****
1825 HO1    22.712209  -19.797756   15.670052 H    253 MOH     0.4215 ****
1826 HC1    23.174666  -16.192107   24.846884 H    254 MOH     0.0372 ****
1827 C1     22.463371  -17.017993   24.836277 C    254 MOH     0.1166 ****
1828 HC2    22.825369  -17.749166   24.112907 H    254 MOH     0.0372 ****
1829 HC3    21.474370  -16.645671   24.566163 H    254 MOH     0.0372 ****
1830 O1     22.399862  -17.591582   26.121091 O    254 MOH    -0.6497 ****
1831 HO1    22.123889  -16.907766   26.735566 H    254 MOH     0.4215 ****
1832 HC1     7.682049  -25.019251   18.864761 H    255 MOH     0.0372 ****
1833 C1      7.290606  -25.788391   18.200080 C    255 MOH     0.1166 ****
1834 HC2     7.790014  -25.754507   17.232051 H    255 MOH     0.0372 ****
1835 HC3     6.219044  -25.625908   18.075629 H    255 MOH     0.0372 ****
1836 O1      7.431479  -27.055186   18.784858 O    255 MOH    -0.6497 ****
1837 HO1     6.985188  -27.055594   19.634093 H    255 MOH     0.4215 ****
1838 HC1    18.036826  -23.660193   13.615907 H    256 MOH     0.0372 ****
1839 C1     16.973347  -23.459335   13.484385 C    256 MOH     0.1166 ****
1840 HC2    16.391378  -24.380343   13.511255 H    256 MOH     0.0372 ****
1841 HC3    16.808225  -22.988624   12.514942 H    256 MOH     0.0372 ****
1842 O1     16.523014  -22.568945   14.463728 O    256 MOH    -0.6497 ****
1843 HO1    16.633288  -21.674473   14.133509 H    256 MOH     0.4215 ****
1844 HC1    21.749766  -20.732644   10.819300 H    257 MOH     0.0372 ****
1845 C1     21.345621  -20.386858    9.868241 C    257 MOH     0.1166 ****
1846 HC2    20.412623  -20.910232    9.656109 H    257 MOH     0.0372 ****
1847 HC3    22.066731  -20.531786    9.064261 H    257 MOH     0.0372 ****
1848 O1     21.099092  -19.020859   10.022390 O    257 MOH    -0.6497 ****
1849 HO1    21.923548  -18.565254   10.210481 H    257 MOH     0.4215 ****
1850 HC1    16.947367  -20.060668    8.355740 H    258 MOH     0.0372 ****
1851 C1     16.710076  -20.347258    9.381045 C    258 MOH     0.1166 ****
1852 HC2    17.472178  -21.009845    9.790459 H    258 MOH     0.0372 ****
1853 HC3    15.756870  -20.875940    9.361953 H    258 MOH     0.0372 ****
1854 O1     16.608462  -19.220901   10.218966 O    258 MOH    -0.6497 ****
1855 HO1    17.382111  -18.664459   10.099465 H    258 MOH     0.4215 ****
1856 HC1    14.044449  -30.637564   16.930117 H    259 MOH     0.0372 ****
1857 C1     14.132784  -29.651645   17.386200 C    259 MOH     0.1166 ****
1858 HC2    13.531762  -29.619801   18.294126 H    259 MOH     0.0372 ****
1859 HC3    13.780600  -28.916390   16.662830 H    259 MOH     0.0372 ****
1860 O1     15.472814  -29.447929   17.693792 O    259 MOH    -0.6497 ****
1861 HO1    15.957788  -29.914557   17.010020 H    259 MOH     0.4215 ****
1862 HC1    23.989308  -18.845313    9.152649 H    260 MOH     0.0372 ****
1863 C1     24.409619  -17.961863    9.633482 C    260 MOH     0.1166 ****
1864 HC2    24.663076  -17.220076    8.876170 H    260 MOH     0.0372 ****
1865 HC3    25.296429  -18.244779   10.199874 H    260 MOH     0.0372 ****
1866 O1     23.404452  -17.465433   10.456554 O    260 MOH    -0.6497 ****
1867 HO1    23.760677  -17.269066   11.325588 H    260 MOH     0.4215 ****
1868 HC1    18.340513  -16.537485   21.728543 H    261 MOH     0.0372 ****
1869 C1     18.297789  -15.663425   21.078712 C    261 MOH     0.1166 ****
1870 HC2    19.098573  -14.963279   21.317007 H    261 MOH     0.0372 ****
1871 HC3    17.358440  -15.147399   21.273873 H    261 MOH     0.0372 ****
1872 O1     18.298366  -16.017785   19.687126 O    261 MOH    -0.6497 ****
1873 HO1    18.407485  -15.225375   19.156089 H    261 MOH     0.4215 ****
1874 HC1    12.654190  -20.806946   10.342710 H    262 MOH     0.0372 ****
1875 C1     12.071643  -21.679780   10.638280 C    262 MOH     0.1166 ****
1876 HC2    12.407661  -22.594665   10.151084 H    262 MOH     0.0372 ****
1877 HC3    11.051466  -21.499743   10.300990 H    262 MOH     0.0372 ****
1878 O1     12.064715  -21.826750   12.041180 O    262 MOH    -0.6497 ****
1879 HO1    11.878231  -20.964938   12.422311 H    262 MOH     0.4215 ****
1880 HC1    11.823383  -23.821451   14.613635 H    263 MOH     0.0372 ****
1881 C1     12.855108  -24.105184   14.407867 C    263 MOH     0.1166 ****
1882 HC2    13.125885  -24.931070   15.064769 H    263 MOH     0.0372 ****
1883 HC3    13.503472  -23.254394   14.618584 H    263 MOH     0.0372 ****
1884 O1     12.993094  -24.424434   13.045979 O    263 MOH    -0.6497 ****
1885 HO1    12.696336  -23.631616   12.593431 H    263 MOH     0.4215 ****
1886 HC1    17.317448  -24.548949    8.927082 H    264 MOH     0.0372 ****
1887 C1     17.331882  -23.841455    8.097646 C    264 MOH     0.1166 ****
1888 HC2    16.341149  -23.410345    7.956224 H    264 MOH     0.0372 ****
1889 HC3    17.670786  -24.334619    7.186892 H    264 MOH     0.0372 ****
1890 O1     18.208877  -22.789808    8.404530 O    264 MOH    -0.6497 ****
1891 HO1    18.405176  -22.782867    9.344275 H    264 MOH     0.4215 ****
1892 HC1    11.113819  -20.066791   15.810766 H    265 MOH     0.0372 ****
1893 C1     10.874219  -20.699576   16.664951 C    265 MOH     0.1166 ****
1894 HC2     9.828638  -20.575061   16.945673 H    265 MOH     0.0372 ****
1895 HC3    11.506417  -20.392165   17.498630 H    265 MOH     0.0372 ****
1896 O1     11.176173  -22.049653   16.348875 O    265 MOH    -0.6497 ****
1897 HO1    10.713716  -22.322771   15.553380 H    265 MOH     0.4215 ****
1898 HC1     8.520362  -28.005179    6.711009 H    266 MOH     0.0372 ****
1899 C1      9.308445  -27.970887    5.958648 C    266 MOH     0.1166 ****
1900 HC2     8.888134  -27.579377    5.031631 H    266 MOH     0.0372 ****
1901 HC3     9.706239  -28.968645    5.771972 H    266 MOH     0.0372 ****
1902 O1     10.314767  -27.070699    6.308666 O    266 MOH    -0.6497 ****
1903 HO1    11.142110  -27.535694    6.165123 H    266 MOH     0.4215 ****
1904 HC1    11.724079  -28.625717    3.992891 H    267 MOH     0.0372 ****
1905 C1     12.154205  -29.195632    4.817377 C    267 MOH     0.1166 ****
1906 HC2    12.929586  -29.839439    4.402306 H    267 MOH     0.0372 ****
1907 HC3    11.408845  -29.844338    5.277704 H    267 MOH     0.0372 ****
1908 O1     12.723472  -28.301160    5.757122 O    267 MOH    -0.6497 ****
1909 HO1    13.138009  -28.840455    6.433823 H    267 MOH     0.4215 ****
1910 HC1    22.071350  -19.910432    6.278260 H    268 MOH     0.0372 ****
1911 C1     22.814977  -20.431357    5.675805 C    268 MOH     0.1166 ****
1912 HC2    23.730655  -19.841847    5.627722 H    268 MOH     0.0372 ****
1913 HC3    22.478959  -20.552607    4.645550 H    268 MOH     0.0372 ****
1914 O1     23.153305  -21.660185    6.259875 O    268 MOH    -0.6497 ****
1915 HO1    22.449515  -21.931670    6.853138 H    268 MOH     0.4215 ****
1916 HC1    21.821935  -24.762872    8.310485 H    269 MOH     0.0372 ****
1917 C1     20.884895  -24.506900    7.817632 C    269 MOH     0.1166 ****
1918 HC2    20.046583  -24.838806    8.430693 H    269 MOH     0.0372 ****
1919 HC3    20.866420  -25.005779    6.848895 H    269 MOH     0.0372 ****
1920 O1     20.854296  -23.123346    7.600550 O    269 MOH    -0.6497 ****
1921 HO1    19.938041  -22.882072    7.448522 H    269 MOH     0.4215 ****
1922 HC1    11.875344  -25.465059   17.552370 H    270 MOH     0.0372 ****
1923 C1     10.865559  -25.065792   17.644294 C    270 MOH     0.1166 ****
1924 HC2    10.252990  -25.807171   18.157654 H    270 MOH     0.0372 ****
1925 HC3    10.464300  -24.873915   16.648688 H    270 MOH     0.0372 ****
1926 O1     10.933686  -23.876973   18.406555 O    270 MOH    -0.6497 ****
1927 HO1    11.267972  -23.183767   17.832385 H    270 MOH     0.4215 ****
1928 HC1     7.619118  -18.228858   15.976229 H    271 MOH     0.0372 ****
1929 C1      8.481679  -17.765904   15.496811 C    271 MOH     0.1166 ****
1930 HC2     9.268608  -17.651186   16.242809 H    271 MOH     0.0372 ****
1931 HC3     8.164714  -16.773861   15.174370 H    271 MOH     0.0372 ****
1932 O1      8.864463  -18.553415   14.337863 O    271 MOH    -0.6497 ****
1933 HO1     8.170488  -18.507283   13.676718 H    271 MOH     0.4215 ****
1934 HC1    14.305412  -22.791440   22.236953 H    272 MOH     0.0372 ****
1935 C1     14.913361  -21.920647   21.988758 C    272 MOH     0.1166 ****
1936 HC2    15.962984  -22.190091   21.874207 H    272 MOH     0.0372 ****
1937 HC3    14.856781  -21.198456   22.804053 H    272 MOH     0.0372 ****
1938 O1     14.518454  -21.358489   20.778899 O    272 MOH    -0.6497 ****
1939 HO1    14.800201  -21.956981   20.083106 H    272 MOH     0.4215 ****
1940 HC1    15.778232  -25.797373    1.527917 H    273 MOH     0.0372 ****
1941 C1     16.701993  -25.609170    0.979909 C    273 MOH     0.1166 ****
1942 HC2    17.292622  -26.524055    1.017386 H    273 MOH     0.0372 ****
1943 HC3    17.224495  -24.785734    1.467105 H    273 MOH     0.0372 ****
1944 O1     16.428906  -25.256852   -0.374201 O    273 MOH    -0.6497 ****
1945 HO1    17.210638  -24.834723   -0.737653 H    273 MOH     0.4215 ****
1946 HC1    19.886079  -16.541567   11.549034 H    274 MOH     0.0372 ****
1947 C1     18.871098  -16.924913   11.445089 C    274 MOH     0.1166 ****
1948 HC2    18.149987  -16.107600   11.466302 H    274 MOH     0.0372 ****
1949 HC3    18.636116  -17.619751   12.251191 H    274 MOH     0.0372 ****
1950 O1     18.743503  -17.636898   10.262807 O    274 MOH    -0.6497 ****
1951 HO1    19.464036  -18.270091   10.230987 H    274 MOH     0.4215 ****
1952 HC1    22.760129  -24.823700   18.808899 H    275 MOH     0.0372 ****
1953 C1     22.137745  -23.929228   18.799707 C    275 MOH     0.1166 ****
1954 HC2    22.581728  -23.142126   19.409233 H    275 MOH     0.0372 ****
1955 HC3    21.166065  -24.207246   19.209122 H    275 MOH     0.0372 ****
1956 O1     21.958189  -23.476481   17.478124 O    275 MOH    -0.6497 ****
1957 HO1    22.815555  -23.200914   17.145077 H    275 MOH     0.4215 ****
1958 HC1    18.744081  -19.176810    7.328314 H    276 MOH     0.0372 ****
1959 C1     19.337019  -19.515248    6.479078 C    276 MOH     0.1166 ****
1960 HC2    19.704214  -20.510966    6.727273 H    276 MOH     0.0372 ****
1961 HC3    20.183992  -18.845313    6.327050 H    276 MOH     0.0372 ****
1962 O1     18.532770  -19.566279    5.308817 O    276 MOH    -0.6497 ****
1963 HO1    18.939802  -20.216619    4.731110 H    276 MOH     0.4215 ****
1964 HC1    14.500556  -18.855927   12.990825 H    277 MOH     0.0372 ****
1965 C1     14.681844  -19.894102   13.270132 C    277 MOH     0.1166 ****
1966 HC2    14.022510  -20.531378   12.681112 H    277 MOH     0.0372 ****
1967 HC3    14.457255  -20.048828   14.325842 H    277 MOH     0.0372 ****
1968 O1     16.012059  -20.289695   13.029008 O    277 MOH    -0.6497 ****
1969 HO1    16.191615  -20.181509   12.092092 H    277 MOH     0.4215 ****
1970 HC1    18.389010  -24.644071   16.649395 H    278 MOH     0.0372 ****
1971 C1     18.842807  -23.764704   17.106186 C    278 MOH     0.1166 ****
1972 HC2    19.679965  -23.447904   16.483932 H    278 MOH     0.0372 ****
1973 HC3    19.146494  -24.013736   18.123006 H    278 MOH     0.0372 ****
1974 O1     17.892489  -22.766946   17.070831 O    278 MOH    -0.6497 ****
1975 HO1    17.564554  -22.711424   16.169977 H    278 MOH     0.4215 ****
1976 HC1    10.221813  -13.171478   14.320185 H    279 MOH     0.0372 ****
1977 C1      9.314219  -13.235165   14.919812 C    279 MOH     0.1166 ****
1978 HC2     8.703382  -14.081871   14.607271 H    279 MOH     0.0372 ****
1979 HC3     8.765158  -12.303134   14.787583 H    279 MOH     0.0372 ****
1980 O1      9.686032  -13.418468   16.244223 O    279 MOH    -0.6497 ****
1981 HO1    10.213153  -14.221084   16.242809 H    279 MOH     0.4215 ****
1982 HC1    17.758544  -27.242980    9.296899 H    280 MOH     0.0372 ****
1983 C1     18.685768  -27.419751    9.840664 C    280 MOH     0.1166 ****
1984 HC2    18.619950  -28.344434   10.414128 H    280 MOH     0.0372 ****
1985 HC3    18.909203  -26.583251   10.503223 H    280 MOH     0.0372 ****
1986 O1     19.689203  -27.521813    8.910111 O    280 MOH    -0.6497 ****
1987 HO1    20.499225  -27.180926    9.296899 H    280 MOH     0.4215 ****
1988 HC1    15.661608  -27.098868    4.024004 H    281 MOH     0.0372 ****
1989 C1     15.941622  -28.007221    4.557869 C    281 MOH     0.1166 ****
1990 HC2    16.749913  -28.502834    4.020468 H    281 MOH     0.0372 ****
1991 HC3    15.110815  -28.713082    4.581204 H    281 MOH     0.0372 ****
1992 O1     16.379254  -27.745942    5.877330 O    281 MOH    -0.6497 ****
1993 HO1    16.031689  -28.450578    6.428874 H    281 MOH     0.4215 ****
1994 HC1    26.605282  -24.800430   13.449737 H    282 MOH     0.0372 ****
1995 C1     25.595496  -25.121314   13.193764 C    282 MOH     0.1166 ****
1996 HC2    24.898057  -24.690612   13.912892 H    282 MOH     0.0372 ****
1997 HC3    25.514090  -26.207662   13.228413 H    282 MOH     0.0372 ****
1998 O1     25.240426  -24.662034   11.921679 O    282 MOH    -0.6497 ****
1999 HO1    25.839138  -25.069466   11.292354 H    282 MOH     0.4215 ****
2000 HC1    15.251111  -26.229299   20.946483 H    283 MOH     0.0372 ****
2001 C1     15.596367  -27.072332   20.348978 C    283 MOH     0.1166 ****
2002 HC2    16.336530  -27.604280   20.947897 H    283 MOH     0.0372 ****
2003 HC3    16.038040  -26.686537   19.430446 H    283 MOH     0.0372 ****
2004 O1     14.543857  -27.990074   20.015223 O    283 MOH    -0.6497 ****
2005 HO1    14.822717  -28.503242   19.253669 H    283 MOH     0.4215 ****
2006 HC1    22.408523  -17.692011   14.723943 H    284 MOH     0.0372 ****
2007 C1     21.916043  -17.255594   13.854909 C    284 MOH     0.1166 ****
2008 HC2    20.973807  -16.768145   14.105225 H    284 MOH     0.0372 ****
2009 HC3    21.663741  -18.090053   13.200128 H    284 MOH     0.0372 ****
2010 O1     22.753778  -16.330503   13.154873 O    284 MOH    -0.6497 ****
2011 HO1    22.212801  -15.630766   12.782935 H    284 MOH     0.4215 ****
2012 HC1    21.283844  -24.528129   14.369683 H    285 MOH     0.0372 ****
2013 C1     21.947220  -25.349933   14.639091 C    285 MOH     0.1166 ****
2014 HC2    22.963356  -24.963730   14.716872 H    285 MOH     0.0372 ****
2015 HC3    21.933363  -26.132545   13.880365 H    285 MOH     0.0372 ****
2016 O1     21.569055  -25.776960   15.926025 O    285 MOH    -0.6497 ****
2017 HO1    21.622749  -25.007820   16.497367 H    285 MOH     0.4215 ****
2018 HC1    25.063757  -18.328878   18.473024 H    286 MOH     0.0372 ****
2019 C1     24.724275  -19.074748   17.753896 C    286 MOH     0.1166 ****
2020 HC2    24.217938  -19.912065   18.235436 H    286 MOH     0.0372 ****
2021 HC3    25.611085  -19.471565   17.258921 H    286 MOH     0.0372 ****
2022 O1     23.883075  -18.454211   16.799302 O    286 MOH    -0.6497 ****
2023 HO1    24.412505  -17.769170   16.383523 H    286 MOH     0.4215 ****
2024 HC1    15.770149  -25.565079    9.492060 H    287 MOH     0.0372 ****
2025 C1     15.139683  -25.878614   10.323618 C    287 MOH     0.1166 ****
2026 HC2    14.163384  -26.191332    9.953094 H    287 MOH     0.0372 ****
2027 HC3    14.969364  -25.051503   11.013754 H    287 MOH     0.0372 ****
2028 O1     15.741859  -26.932711   11.019411 O    287 MOH    -0.6497 ****
2029 HO1    15.091185  -27.287071   11.628937 H    287 MOH     0.4215 ****
2030 HC1    18.432311  -20.832665   12.635857 H    288 MOH     0.0372 ****
2031 C1     19.088759  -20.557098   13.461051 C    288 MOH     0.1166 ****
2032 HC2    18.542008  -20.593023   14.404331 H    288 MOH     0.0372 ****
2033 HC3    19.435169  -19.534436   13.310437 H    288 MOH     0.0372 ****
2034 O1     20.207663  -21.429116   13.526105 O    288 MOH    -0.6497 ****
2035 HO1    20.812727  -21.102517   14.196442 H    288 MOH     0.4215 ****
2036 HC1    22.208759  -16.117806   20.403425 H    289 MOH     0.0372 ****
2037 C1     21.896990  -16.536668   21.360848 C    289 MOH     0.1166 ****
2038 HC2    21.369869  -15.790391   21.953403 H    289 MOH     0.0372 ****
2039 HC3    22.789574  -16.870207   21.889056 H    289 MOH     0.0372 ****
2040 O1     21.082349  -17.650778   21.133866 O    289 MOH    -0.6497 ****
2041 HO1    20.396457  -17.409503   20.508077 H    289 MOH     0.4215 ****
2042 HC1     7.770384  -30.900476   12.688890 H    290 MOH     0.0372 ****
2043 C1      8.414130  -30.116231   12.292203 C    290 MOH     0.1166 ****
2044 HC2     8.448193  -29.314840   13.029716 H    290 MOH     0.0372 ****
2045 HC3     8.015180  -29.676140   11.377207 H    290 MOH     0.0372 ****
2046 O1      9.725869  -30.580818   12.061686 O    290 MOH    -0.6497 ****
2047 HO1    10.168120  -29.793715   11.736417 H    290 MOH     0.4215 ****
2048 HC1    17.046093  -19.193548   19.195687 H    291 MOH     0.0372 ****
2049 C1     17.628062  -18.951049   18.306146 C    291 MOH     0.1166 ****
2050 HC2    17.591689  -19.772853   17.591261 H    291 MOH     0.0372 ****
2051 HC3    18.655169  -18.807754   18.643436 H    291 MOH     0.0372 ****
2052 O1     17.162141  -17.706708   17.774402 O    291 MOH    -0.6497 ****
2053 HO1    17.577833  -17.029424   18.312510 H    291 MOH     0.4215 ****
2054 HC1    14.540393  -23.759805   16.867184 H    292 MOH     0.0372 ****
2055 C1     14.703206  -23.983934   17.921480 C    292 MOH     0.1166 ****
2056 HC2    15.270741  -24.910657   18.013404 H    292 MOH     0.0372 ****
2057 HC3    13.719401  -24.101509   18.375443 H    292 MOH     0.0372 ****
2058 O1     15.396026  -22.907383   18.513329 O    292 MOH    -0.6497 ****
2059 HO1    16.234339  -22.816752   18.055123 H    292 MOH     0.4215 ****
2060 HC1    12.475789  -29.825967   21.626720 H    293 MOH     0.0372 ****
2061 C1     12.082613  -29.391182   22.545252 C    293 MOH     0.1166 ****
2062 HC2    11.898438  -28.326471   22.403830 H    293 MOH     0.0372 ****
2063 HC3    12.781784  -29.535294   23.369031 H    293 MOH     0.0372 ****
2064 O1     10.918098  -30.052136   22.874056 O    293 MOH    -0.6497 ****
2065 HO1    10.493745  -29.602655   23.608740 H    293 MOH     0.4215 ****
2066 HC1    14.262688  -23.864725    7.531253 H    294 MOH     0.0372 ****
2067 C1     14.129320  -24.887387    7.178407 C    294 MOH     0.1166 ****
2068 HC2    13.130504  -24.964954    6.749900 H    294 MOH     0.0372 ****
2069 HC3    14.202643  -25.604271    7.995822 H    294 MOH     0.0372 ****
2070 O1     15.049616  -25.164588    6.166537 O    294 MOH    -0.6497 ****
2071 HO1    15.165664  -26.112540    6.074613 H    294 MOH     0.4215 ****
2072 HC1    17.398277  -16.584025    6.841117 H    295 MOH     0.0372 ****
2073 C1     16.550727  -17.248654    7.010823 C    295 MOH     0.1166 ****
2074 HC2    15.685279  -16.604846    7.167093 H    295 MOH     0.0372 ****
2075 HC3    16.783399  -17.850411    7.889049 H    295 MOH     0.0372 ****
2076 O1     16.417359  -17.950432    5.795306 O    295 MOH    -0.6497 ****
2077 HO1    17.263177  -18.356231    5.590245 H    295 MOH     0.4215 ****
2078 HC1    18.815672  -21.201722   21.422366 H    296 MOH     0.0372 ****
2079 C1     18.879180  -22.124771   20.846074 C    296 MOH     0.1166 ****
2080 HC2    19.910905  -22.328895   20.560403 H    296 MOH     0.0372 ****
2081 HC3    18.261993  -22.012911   19.955119 H    296 MOH     0.0372 ****
2082 O1     18.361297  -23.178052   21.611163 O    296 MOH    -0.6497 ****
2083 HO1    18.611290  -24.002713   21.186899 H    296 MOH     0.4215 ****
2084 HC1     6.764640  -21.894111   12.939913 H    297 MOH     0.0372 ****
2085 C1      6.598363  -20.823684   13.058707 C    297 MOH     0.1166 ****
2086 HC2     6.951701  -20.502801   14.038757 H    297 MOH     0.0372 ****
2087 HC3     5.531420  -20.610578   12.986582 H    297 MOH     0.0372 ****
2088 O1      7.285410  -20.109249   12.048958 O    297 MOH    -0.6497 ****
2089 HO1     7.194766  -20.639156   11.254170 H    297 MOH     0.4215 ****
2090 HC1    13.427839  -15.578101   10.090980 H    298 MOH     0.0372 ****
2091 C1     14.299061  -16.233340   10.071888 C    298 MOH     0.1166 ****
2092 HC2    14.298483  -16.804888    9.144164 H    298 MOH     0.0372 ****
2093 HC3    14.271348  -16.942467   10.899910 H    298 MOH     0.0372 ****
2094 O1     15.477433  -15.448687   10.145427 O    298 MOH    -0.6497 ****
2095 HO1    15.447988  -14.937968   10.957893 H    298 MOH     0.4215 ****
2096 HC1     9.242627  -22.343184   12.616058 H    299 MOH     0.0372 ****
2097 C1      9.509940  -23.347883   12.944863 C    299 MOH     0.1166 ****
2098 HC2    10.454485  -23.637331   12.484536 H    299 MOH     0.0372 ****
2099 HC3     8.747261  -24.061501   12.635150 H    299 MOH     0.0372 ****
2100 O1      9.677372  -23.340126   14.373925 O    299 MOH    -0.6497 ****
2101 HO1     8.848874  -23.152332   14.820817 H    299 MOH     0.4215 ****
2102 HC1    27.176281  -21.206621   10.046432 H    300 MOH     0.0372 ****
2103 C1     26.729412  -20.792657    9.142750 C    300 MOH     0.1166 ****
2104 HC2    25.701729  -20.473815    9.314577 H    300 MOH     0.0372 ****
2105 HC3    26.760012  -21.565063    8.373417 H    300 MOH     0.0372 ****
2106 O1     27.540012  -19.728354    8.754548 O    300 MOH    -0.6497 ****
2107 HO1    27.721877  -19.182117    9.522466 H    300 MOH     0.4215 ****
2108 HC1    20.402231  -23.458927    4.640601 H    301 MOH     0.0372 ****
2109 C1     19.477893  -22.943717    4.378971 C    301 MOH     0.1166 ****
2110 HC2    18.764865  -22.990666    5.202751 H    301 MOH     0.0372 ****
2111 HC3    19.041993  -23.389933    3.485895 H    301 MOH     0.0372 ****
2112 O1     19.715761  -21.594457    4.099664 O    301 MOH    -0.6497 ****
2113 HO1    20.220365  -21.564246    3.283663 H    301 MOH     0.4215 ****
2114 HC1    12.124182  -16.265592   14.692831 H    302 MOH     0.0372 ****
2115 C1     11.753523  -16.662409   15.637525 C    302 MOH     0.1166 ****
2116 HC2    12.608002  -16.785292   16.302913 H    302 MOH     0.0372 ****
2117 HC3    11.281828  -17.638122   15.521560 H    302 MOH     0.0372 ****
2118 O1     10.898468  -15.727112   16.199675 O    302 MOH    -0.6497 ****
2119 HO1    11.083220  -15.725479   17.141541 H    302 MOH     0.4215 ****
2120 HC1    11.412309  -20.940443   20.431002 H    303 MOH     0.0372 ****
2121 C1     11.345914  -21.200905   21.487420 C    303 MOH     0.1166 ****
2122 HC2    11.453879  -22.279089   21.611163 H    303 MOH     0.0372 ****
2123 HC3    10.362109  -20.886146   21.836023 H    303 MOH     0.0372 ****
2124 O1     12.329719  -20.481980   22.210790 O    303 MOH    -0.6497 ****
2125 HO1    13.152443  -20.590982   21.727836 H    303 MOH     0.4215 ****
2126 HC1    18.958855  -18.379501   25.279633 H    304 MOH     0.0372 ****
2127 C1     19.396486  -19.282955   24.854662 C    304 MOH     0.1166 ****
2128 HC2    19.640128  -19.087812   23.810973 H    304 MOH     0.0372 ****
2129 HC3    18.690964  -20.109249   24.948000 H    304 MOH     0.0372 ****
2130 O1     20.532712  -19.580568   25.602074 O    304 MOH    -0.6497 ****
2131 HO1    21.160291  -18.854702   25.553991 H    304 MOH     0.4215 ****
2132 HC1    15.738972  -25.577327   24.646773 H    305 MOH     0.0372 ****
2133 C1     15.328476  -26.533853   24.969921 C    305 MOH     0.1166 ****
2134 HC2    16.107322  -27.296460   24.991134 H    305 MOH     0.0372 ****
2135 HC3    14.543280  -26.812686   24.267764 H    305 MOH     0.0372 ****
2136 O1     14.732651  -26.389333   26.225742 O    305 MOH    -0.6497 ****
2137 HO1    15.353302  -25.940259   26.804156 H    305 MOH     0.4215 ****
2138 HC1    12.121873  -14.851828   11.617623 H    306 MOH     0.0372 ****
2139 C1     12.688254  -14.546866   12.497971 C    306 MOH     0.1166 ****
2140 HC2    13.073924  -15.440522   12.989410 H    306 MOH     0.0372 ****
2141 HC3    12.034116  -14.023084   13.194471 H    306 MOH     0.0372 ****
2142 O1     13.782910  -13.732411   12.092799 O    306 MOH    -0.6497 ****
2143 HO1    13.431881  -12.857127   11.916022 H    306 MOH     0.4215 ****
2144 HC1     4.038392  -24.256644   11.014461 H    307 MOH     0.0372 ****
2145 C1      4.597267  -23.624267   11.703890 C    307 MOH     0.1166 ****
2146 HC2     4.642300  -22.623650   11.273262 H    307 MOH     0.0372 ****
2147 HC3     5.610517  -24.018635   11.784500 H    307 MOH     0.0372 ****
2148 O1      3.932159  -23.612020   12.992239 O    307 MOH    -0.6497 ****
2149 HO1     4.399236  -24.230107   13.557924 H    307 MOH     0.4215 ****
2150 HC1    12.513316  -30.469774    8.913647 H    308 MOH     0.0372 ****
2151 C1     11.631125  -29.886388    9.174569 C    308 MOH     0.1166 ****
2152 HC2    11.935389  -28.887812    9.485696 H    308 MOH     0.0372 ****
2153 HC3    11.095922  -30.376286    9.987742 H    308 MOH     0.0372 ****
2154 O1     10.810133  -29.831274    8.007136 O    308 MOH    -0.6497 ****
2155 HO1    10.719489  -30.720031    7.654290 H    308 MOH     0.4215 ****
2156 HC1    14.243635  -28.606937   13.980067 H    309 MOH     0.0372 ****
2157 C1     13.931866  -27.563455   13.944712 C    309 MOH     0.1166 ****
2158 HC2    14.737847  -26.906175   14.272809 H    309 MOH     0.0372 ****
2159 HC3    13.088935  -27.440164   14.623534 H    309 MOH     0.0372 ****
2160 O1     13.478646  -27.217260   12.650706 O    309 MOH    -0.6497 ****
2161 HO1    13.267336  -26.281555   12.680405 H    309 MOH     0.4215 ****
2162 HC1    20.939744  -20.593432   21.477520 H    310 MOH     0.0372 ****
2163 C1     21.865236  -20.293777   21.971081 C    310 MOH     0.1166 ****
2164 HC2    22.309218  -21.147833   22.483026 H    310 MOH     0.0372 ****
2165 HC3    21.619285  -19.541784   22.720614 H    310 MOH     0.0372 ****
2166 O1     22.747427  -19.794490   20.945069 O    310 MOH    -0.6497 ****
2167 HO1    22.556902  -18.856335   20.870116 H    310 MOH     0.4215 ****
2168 HC1     9.968934  -29.436090   14.796775 H    311 MOH     0.0372 ****
2169 C1     10.740274  -29.729212   15.509539 C    311 MOH     0.1166 ****
2170 HC2    11.638053  -29.985592   14.946682 H    311 MOH     0.0372 ****
2171 HC3    10.410029  -30.617560   16.048354 H    311 MOH     0.0372 ****
2172 O1     11.000659  -28.651845   16.418171 O    311 MOH    -0.6497 ****
2173 HO1    10.334396  -28.676748   17.109015 H    311 MOH     0.4215 ****
2174 HC1     9.839607  -28.825350   20.679904 H    312 MOH     0.0372 ****
2175 C1     10.322849  -28.975994   19.714703 C    312 MOH     0.1166 ****
2176 HC2    10.778379  -29.965588   19.694904 H    312 MOH     0.0372 ****
2177 HC3    11.083220  -28.206854   19.576110 H    312 MOH     0.0372 ****
2178 O1      9.291702  -28.926596   18.728289 O    312 MOH    -0.6497 ****
2179 HO1     8.779015  -28.125613   18.858397 H    312 MOH     0.4215 ****
2180 HC1     5.539502  -27.397706   14.346348 H    313 MOH     0.0372 ****
2181 C1      6.127245  -26.482005   14.407867 C    313 MOH     0.1166 ****
2182 HC2     6.593167  -26.271349   13.444787 H    313 MOH     0.0372 ****
2183 HC3     6.915906  -26.630607   15.144672 H    313 MOH     0.0372 ****
2184 O1      5.345513  -25.357281   14.783340 O    313 MOH    -0.6497 ****
2185 HO1     4.945409  -25.521397   15.640354 H    313 MOH     0.4215 ****
2186 HC1    19.356649  -16.724463   16.825465 H    314 MOH     0.0372 ****
2187 C1     20.302349  -16.381534   17.245486 C    314 MOH     0.1166 ****
2188 HC2    20.188611  -15.407045   17.721369 H    314 MOH     0.0372 ****
2189 HC3    21.032120  -16.268041   16.443627 H    314 MOH     0.0372 ****
2190 O1     20.744022  -17.303767   18.217758 O    314 MOH    -0.6497 ****
2191 HO1    21.575406  -17.692011   17.935622 H    314 MOH     0.4215 ****
2192 HC1    19.274665  -24.790224   11.896223 H    315 MOH     0.0372 ****
2193 C1     20.056398  -24.117023   11.544791 C    315 MOH     0.1166 ****
2194 HC2    20.615850  -24.551807   10.716769 H    315 MOH     0.0372 ****
2195 HC3    20.741712  -23.912082   12.366449 H    315 MOH     0.0372 ****
2196 O1     19.482512  -22.917589   11.099314 O    315 MOH    -0.6497 ****
2197 HO1    19.677656  -22.274190   11.785208 H    315 MOH     0.4215 ****
2198 HC1    24.174522   -2.049325   12.167752 H    316 MOH     0.0372 ****
2199 C1     23.138178   -1.910520   12.474637 C    316 MOH     0.1166 ****
2200 HC2    22.574684   -1.546363   11.616209 H    316 MOH     0.0372 ****
2201 HC3    23.068319   -1.160568   13.263061 H    316 MOH     0.0372 ****
2202 O1     22.612789   -3.153228   12.891830 O    316 MOH    -0.6497 ****
2203 HO1    21.850109   -3.000951   13.453980 H    316 MOH     0.4215 ****
2204 HC1    30.782295  -11.351262   20.765464 H    317 MOH     0.0372 ****
2205 C1     30.843495  -10.571508   21.523482 C    317 MOH     0.1166 ****
2206 HC2    31.203761  -11.017315   22.451206 H    317 MOH     0.0372 ****
2207 HC3    29.850452  -10.146113   21.669146 H    317 MOH     0.0372 ****
2208 O1     31.714716   -9.548846   21.095683 O    317 MOH    -0.6497 ****
2209 HO1    32.601526   -9.908921   21.029215 H    317 MOH     0.4215 ****
2210 HC1    30.403554  -17.455799    7.352355 H    318 MOH     0.0372 ****
2211 C1     30.216492  -18.441718    7.777326 C    318 MOH     0.1166 ****
2212 HC2    29.824471  -18.347005    8.789903 H    318 MOH     0.0372 ****
2213 HC3    31.173739  -18.958152    7.845916 H    318 MOH     0.0372 ****
2214 O1     29.375293  -19.245559    6.928091 O    318 MOH    -0.6497 ****
2215 HO1    28.659379  -19.591754    7.465492 H    318 MOH     0.4215 ****
2216 HC1    33.033962  -16.983864   13.989260 H    319 MOH     0.0372 ****
2217 C1     32.185257  -16.549079   14.517468 C    319 MOH     0.1166 ****
2218 HC2    32.049002  -15.521927   14.179471 H    319 MOH     0.0372 ****
2219 HC3    32.349801  -16.561327   15.595099 H    319 MOH     0.0372 ****
2220 O1     31.019586  -17.247184   14.183714 O    319 MOH    -0.6497 ****
2221 HO1    31.046722  -18.047759   14.713337 H    319 MOH     0.4215 ****
2222 HC1    25.224144   -3.500647   16.836778 H    320 MOH     0.0372 ****
2223 C1     25.828053   -2.949104   17.557320 C    320 MOH     0.1166 ****
2224 HC2    26.639807   -3.584338   17.910874 H    320 MOH     0.0372 ****
2225 HC3    25.179688   -2.663330   18.386049 H    320 MOH     0.0372 ****
2226 O1     26.332657   -1.825196   16.901832 O    320 MOH    -0.6497 ****
2227 HO1    27.145566   -1.563509   17.340946 H    320 MOH     0.4215 ****
2228 HC1    31.928336   -9.908104    4.375436 H    321 MOH     0.0372 ****
2229 C1     31.136211  -10.440460    4.901523 C    321 MOH     0.1166 ****
2230 HC2    31.163347  -10.182855    5.960062 H    321 MOH     0.0372 ****
2231 HC3    31.301911  -11.508029    4.759395 H    321 MOH     0.0372 ****
2232 O1     29.907610  -10.024863    4.345737 O    321 MOH    -0.6497 ****
2233 HO1    29.213058  -10.383714    4.903644 H    321 MOH     0.4215 ****
2234 HC1    23.285980   -8.822164   21.221548 H    322 MOH     0.0372 ****
2235 C1     22.265802   -9.114878   21.469742 C    322 MOH     0.1166 ****
2236 HC2    22.104721   -9.057315   22.545251 H    322 MOH     0.0372 ****
2237 HC3    22.057378  -10.137132   21.152958 H    322 MOH     0.0372 ****
2238 O1     21.379569   -8.222447   20.868701 O    322 MOH    -0.6497 ****
2239 HO1    21.831057   -7.846042   20.109269 H    322 MOH     0.4215 ****
2240 HC1    27.083212   -4.873995    6.324929 H    323 MOH     0.0372 ****
2241 C1     27.128823   -5.328783    5.334980 C    323 MOH     0.1166 ****
2242 HC2    28.046233   -5.907679    5.226085 H    323 MOH     0.0372 ****
2243 HC3    27.118431   -4.551070    4.572011 H    323 MOH     0.0372 ****
2244 O1     26.025507   -6.165284    5.117898 O    323 MOH    -0.6497 ****
2245 HO1    26.284737   -7.052816    5.375285 H    323 MOH     0.4215 ****
2246 HC1    17.884868   -6.035461   17.425798 H    324 MOH     0.0372 ****
2247 C1     18.925253   -6.008108   17.099822 C    324 MOH     0.1166 ****
2248 HC2    19.509531   -6.647833   17.762381 H    324 MOH     0.0372 ****
2249 HC3    19.266467   -4.974424   17.153562 H    324 MOH     0.0372 ****
2250 O1     18.992226   -6.490250   15.776825 O    324 MOH    -0.6497 ****
2251 HO1    18.397555   -7.243059   15.732985 H    324 MOH     0.4215 ****
2252 HC1    15.107813   -7.117727   16.125429 H    325 MOH     0.0372 ****
2253 C1     14.673068   -8.003218   16.588584 C    325 MOH     0.1166 ****
2254 HC2    14.260840   -8.678052   15.838344 H    325 MOH     0.0372 ****
2255 HC3    13.850921   -7.717036   17.245486 H    325 MOH     0.0372 ****
2256 O1     15.578353   -8.705813   17.384079 O    325 MOH    -0.6497 ****
2257 HO1    15.051810   -9.423514   17.744703 H    325 MOH     0.4215 ****
2258 HC1    28.696906   -1.559427   13.894507 H    326 MOH     0.0372 ****
2259 C1     28.031221   -0.700472   13.979360 C    326 MOH     0.1166 ****
2260 HC2    26.989104   -1.020539   13.972289 H    326 MOH     0.0372 ****
2261 HC3    28.166321   -0.075852   13.096891 H    326 MOH     0.0372 ****
2262 O1     28.256965    0.096428   15.182856 O    326 MOH    -0.6497 ****
2263 HO1    28.184219   -0.470629   15.952895 H    326 MOH     0.4215 ****
2264 HC1    19.463921  -15.717886    4.487866 H    327 MOH     0.0372 ****
2265 C1     19.876726  -14.710329    4.451096 C    327 MOH     0.1166 ****
2266 HC2    19.791279  -14.239619    5.430439 H    327 MOH     0.0372 ****
2267 HC3    19.299953  -14.122451    3.736918 H    327 MOH     0.0372 ****
2268 O1     21.216179  -14.765851    4.019761 O    327 MOH    -0.6497 ****
2269 HO1    21.249665  -15.426396    3.323968 H    327 MOH     0.4215 ****
2270 HC1    25.637527    2.694520   16.628182 H    328 MOH     0.0372 ****
2271 C1     25.183153    2.992542   15.683487 C    328 MOH     0.1166 ****
2272 HC2    24.102353    2.857820   15.731570 H    328 MOH     0.0372 ****
2273 HC3    25.605773    2.367922   14.895770 H    328 MOH     0.0372 ****
2274 O1     25.464900    4.349967   15.423979 O    328 MOH    -0.6497 ****
2275 HO1    25.195277    4.544293   14.523125 H    328 MOH     0.4215 ****
2276 HC1    26.678490    5.608189   19.751473 H    329 MOH     0.0372 ****
2277 C1     26.336698    4.938661   18.962341 C    329 MOH     0.1166 ****
2278 HC2    25.838445    4.062561   19.378120 H    329 MOH     0.0372 ****
2279 HC3    27.209075    4.620636   18.391706 H    329 MOH     0.0372 ****
2280 O1     25.555543    5.668609   18.040274 O    329 MOH    -0.6497 ****
2281 HO1    25.582679    5.181569   17.213666 H    329 MOH     0.4215 ****
2282 HC1    29.445152  -11.097740   15.420444 H    330 MOH     0.0372 ****
2283 C1     29.304856  -11.252058   14.351298 C    330 MOH     0.1166 ****
2284 HC2    29.108557  -10.297573   13.861980 H    330 MOH     0.0372 ****
2285 HC3    28.470585  -11.930975   14.175229 H    330 MOH     0.0372 ****
2286 O1     30.480341  -11.806459   13.799755 O    330 MOH    -0.6497 ****
2287 HO1    31.126974  -11.907296   14.501912 H    330 MOH     0.4215 ****
2288 HC1    26.901347  -11.303905    8.051684 H    331 MOH     0.0372 ****
2289 C1     26.740266  -12.316769    8.420086 C    331 MOH     0.1166 ****
2290 HC2    25.989134  -12.271862    9.207803 H    331 MOH     0.0372 ****
2291 HC3    27.665181  -12.717261    8.835158 H    331 MOH     0.0372 ****
2292 O1     26.288778  -13.163476    7.363669 O    331 MOH    -0.6497 ****
2293 HO1    26.693501  -14.021614    7.513576 H    331 MOH     0.4215 ****
2294 HC1    30.702621    1.740036    7.838845 H    332 MOH     0.0372 ****
2295 C1     30.121807    2.121340    8.678887 C    332 MOH     0.1166 ****
2296 HC2    30.419142    3.128488    8.970923 H    332 MOH     0.0372 ****
2297 HC3    30.329653    1.466101    9.525294 H    332 MOH     0.0372 ****
2298 O1     28.742517    2.077657    8.393923 O    332 MOH    -0.6497 ****
2299 HO1    28.337217    1.402823    8.943345 H    332 MOH     0.4215 ****
2300 HC1    19.280323   -8.616815   18.864761 H    333 MOH     0.0372 ****
2301 C1     18.888880   -9.385955   18.200080 C    333 MOH     0.1166 ****
2302 HC2    19.388288   -9.352070   17.232051 H    333 MOH     0.0372 ****
2303 HC3    17.817318   -9.223472   18.075629 H    333 MOH     0.0372 ****
2304 O1     19.029753  -10.652749   18.784858 O    333 MOH    -0.6497 ****
2305 HO1    18.583462  -10.653157   19.634093 H    333 MOH     0.4215 ****
2306 HC1    29.635101   -7.257756   13.615907 H    334 MOH     0.0372 ****
2307 C1     28.571621   -7.056898   13.484385 C    334 MOH     0.1166 ****
2308 HC2    27.989652   -7.977906   13.511255 H    334 MOH     0.0372 ****
2309 HC3    28.406499   -6.586188   12.514942 H    334 MOH     0.0372 ****
2310 O1     28.121288   -6.166509   14.463728 O    334 MOH    -0.6497 ****
2311 HO1    28.231562   -5.272037   14.133509 H    334 MOH     0.4215 ****
2312 HC1    29.115485  -15.586021   16.022899 H    335 MOH     0.0372 ****
2313 C1     28.929578  -15.000185   15.122752 C    335 MOH     0.1166 ****
2314 HC2    28.947476  -15.623989   14.228969 H    335 MOH     0.0372 ****
2315 HC3    29.677247  -14.214715   15.013857 H    335 MOH     0.0372 ****
2316 O1     27.687121  -14.411899   15.252152 O    335 MOH    -0.6497 ****
2317 HO1    27.388631  -14.301264   14.346348 H    335 MOH     0.4215 ****
2318 HC1    30.300208  -12.010991   17.442062 H    336 MOH     0.0372 ****
2319 C1     31.054227  -12.764618   17.214374 C    336 MOH     0.1166 ****
2320 HC2    30.568099  -13.654191   16.814858 H    336 MOH     0.0372 ****
2321 HC3    31.543243  -13.054066   18.144219 H    336 MOH     0.0372 ****
2322 O1     31.988380  -12.222464   16.269679 O    336 MOH    -0.6497 ****
2323 HO1    32.204887  -11.324726   16.529187 H    336 MOH     0.4215 ****
2324 HC1    28.545641   -3.658231    8.355740 H    337 MOH     0.0372 ****
2325 C1     28.308350   -3.944822    9.381045 C    337 MOH     0.1166 ****
2326 HC2    29.070452   -4.607408    9.790459 H    337 MOH     0.0372 ****
2327 HC3    27.355144   -4.473503    9.361953 H    337 MOH     0.0372 ****
2328 O1     28.206736   -2.818464   10.218966 O    337 MOH    -0.6497 ****
2329 HO1    28.980385   -2.262022   10.099465 H    337 MOH     0.4215 ****
2330 HC1    26.236817  -18.640535   14.707680 H    338 MOH     0.0372 ****
2331 C1     25.829785  -17.639919   14.562723 C    338 MOH     0.1166 ****
2332 HC2    24.784204  -17.685642   14.257253 H    338 MOH     0.0372 ****
2333 HC3    26.386351  -17.182272   13.746015 H    338 MOH     0.0372 ****
2334 O1     25.984515  -16.816074   15.719550 O    338 MOH    -0.6497 ****
2335 HO1    26.267416  -15.935890   15.459334 H    338 MOH     0.4215 ****
2336 HC1    25.642723  -14.235128   16.930117 H    339 MOH     0.0372 ****
2337 C1     25.731058  -13.249208   17.386200 C    339 MOH     0.1166 ****
2338 HC2    25.130036  -13.217365   18.294126 H    339 MOH     0.0372 ****
2339 HC3    25.378874  -12.513953   16.662830 H    339 MOH     0.0372 ****
2340 O1     27.071088  -13.045492   17.693792 O    339 MOH    -0.6497 ****
2341 HO1    27.556062  -13.512120   17.010020 H    339 MOH     0.4215 ****
2342 HC1    29.938787   -0.135048   21.728543 H    340 MOH     0.0372 ****
2343 C1     29.896063    0.739011   21.078712 C    340 MOH     0.1166 ****
2344 HC2    30.696848    1.439157   21.317007 H    340 MOH     0.0372 ****
2345 HC3    28.956714    1.255037   21.273873 H    340 MOH     0.0372 ****
2346 O1     29.896640    0.384652   19.687126 O    340 MOH    -0.6497 ****
2347 HO1    30.005759    1.177062   19.156089 H    340 MOH     0.4215 ****
2348 HC1    27.606292  -19.072462   17.743997 H    341 MOH     0.0372 ****
2349 C1     28.682473  -19.064297   17.574291 C    341 MOH     0.1166 ****
2350 HC2    29.102784  -18.204118   18.094014 H    341 MOH     0.0372 ****
2351 HC3    28.886277  -19.003876   16.505145 H    341 MOH     0.0372 ****
2352 O1     29.275989  -20.209025   18.074923 O    341 MOH    -0.6497 ****
2353 HO1    28.814108  -20.470304   18.873953 H    341 MOH     0.4215 ****
2354 HC1    24.252464   -4.404509   10.342710 H    342 MOH     0.0372 ****
2355 C1     23.669918   -5.277344   10.638280 C    342 MOH     0.1166 ****
2356 HC2    24.005935   -6.192228   10.151084 H    342 MOH     0.0372 ****
2357 HC3    22.649740   -5.097306   10.300990 H    342 MOH     0.0372 ****
2358 O1     23.662989   -5.424313   12.041180 O    342 MOH    -0.6497 ****
2359 HO1    23.476505   -4.562501   12.422311 H    342 MOH     0.4215 ****
2360 HC1    23.421657   -7.419014   14.613635 H    343 MOH     0.0372 ****
2361 C1     24.453382   -7.702747   14.407867 C    343 MOH     0.1166 ****
2362 HC2    24.724159   -8.528633   15.064769 H    343 MOH     0.0372 ****
2363 HC3    25.101746   -6.851958   14.618584 H    343 MOH     0.0372 ****
2364 O1     24.591369   -8.021997   13.045979 O    343 MOH    -0.6497 ****
2365 HO1    24.294611   -7.229179   12.593431 H    343 MOH     0.4215 ****
2366 HC1    28.915722   -8.146513    8.927082 H    344 MOH     0.0372 ****
2367 C1     28.930156   -7.439019    8.097646 C    344 MOH     0.1166 ****
2368 HC2    27.939423   -7.007908    7.956224 H    344 MOH     0.0372 ****
2369 HC3    29.269061   -7.932183    7.186892 H    344 MOH     0.0372 ****
2370 O1     29.807151   -6.387371    8.404530 O    344 MOH    -0.6497 ****
2371 HO1    30.003450   -6.380431    9.344275 H    344 MOH     0.4215 ****
2372 HC1    24.772079  -15.893841   22.805467 H    345 MOH     0.0372 ****
2373 C1     25.764544  -15.873020   22.355040 C    345 MOH     0.1166 ****
2374 HC2    26.287624  -14.961810   22.644954 H    345 MOH     0.0372 ****
2375 HC3    25.704500  -15.928542   21.268924 H    345 MOH     0.0372 ****
2376 O1     26.499511  -16.937732   22.803346 O    345 MOH    -0.6497 ****
2377 HO1    26.052642  -17.733816   22.507775 H    345 MOH     0.4215 ****
2378 HC1    22.712093   -3.664355   15.810766 H    346 MOH     0.0372 ****
2379 C1     22.472493   -4.297140   16.664951 C    346 MOH     0.1166 ****
2380 HC2    21.426912   -4.172624   16.945673 H    346 MOH     0.0372 ****
2381 HC3    23.104692   -3.989729   17.498630 H    346 MOH     0.0372 ****
2382 O1     22.774447   -5.647217   16.348875 O    346 MOH    -0.6497 ****
2383 HO1    22.311990   -5.920335   15.553380 H    346 MOH     0.4215 ****
2384 HC1    23.322353  -12.223280    3.992891 H    347 MOH     0.0372 ****
2385 C1     23.752479  -12.793195    4.817377 C    347 MOH     0.1166 ****
2386 HC2    24.527860  -13.437003    4.402306 H    347 MOH     0.0372 ****
2387 HC3    23.007120  -13.441902    5.277704 H    347 MOH     0.0372 ****
2388 O1     24.321746  -11.898723    5.757122 O    347 MOH    -0.6497 ****
2389 HO1    24.736284  -12.438019    6.433823 H    347 MOH     0.4215 ****
2390 HC1    33.420209   -8.360435    8.310485 H    348 MOH     0.0372 ****
2391 C1     32.483169   -8.104463    7.817632 C    348 MOH     0.1166 ****
2392 HC2    31.644857   -8.436369    8.430693 H    348 MOH     0.0372 ****
2393 HC3    32.464694   -8.603343    6.848895 H    348 MOH     0.0372 ****
2394 O1     32.452570   -6.720910    7.600550 O    348 MOH    -0.6497 ****
2395 HO1    31.536315   -6.479635    7.448522 H    348 MOH     0.4215 ****
2396 HC1    23.473618   -9.062622   17.552370 H    349 MOH     0.0372 ****
2397 C1     22.463833   -8.663355   17.644294 C    349 MOH     0.1166 ****
2398 HC2    21.851264   -9.404734   18.157654 H    349 MOH     0.0372 ****
2399 HC3    22.062574   -8.471479   16.648688 H    349 MOH     0.0372 ****
2400 O1     22.531960   -7.474536   18.406555 O    349 MOH    -0.6497 ****
2401 HO1    22.866246   -6.781331   17.832385 H    349 MOH     0.4215 ****
2402 HC1    30.090630  -13.070396    6.602822 H    350 MOH     0.0372 ****
2403 C1     30.396048  -14.050600    6.235834 C    350 MOH     0.1166 ****
2404 HC2    31.345212  -13.970991    5.706211 H    350 MOH     0.0372 ****
2405 HC3    29.629327  -14.442926    5.569032 H    350 MOH     0.0372 ****
2406 O1     30.549623  -14.971200    7.309929 O    350 MOH    -0.6497 ****
2407 HO1    31.398906  -15.405168    7.201742 H    350 MOH     0.4215 ****
2408 HC1    19.217392   -1.826421   15.976229 H    351 MOH     0.0372 ****
2409 C1     20.079954   -1.363468   15.496811 C    351 MOH     0.1166 ****
2410 HC2    20.866882   -1.248750   16.242809 H    351 MOH     0.0372 ****
2411 HC3    19.762988   -0.371424   15.174370 H    351 MOH     0.0372 ****
2412 O1     20.462737   -2.150978   14.337863 O    351 MOH    -0.6497 ****
2413 HO1    19.768762   -2.104846   13.676718 H    351 MOH     0.4215 ****
2414 HC1    25.903686   -6.389004   22.236953 H    352 MOH     0.0372 ****
2415 C1     26.511635   -5.518210   21.988758 C    352 MOH     0.1166 ****
2416 HC2    27.561258   -5.787654   21.874207 H    352 MOH     0.0372 ****
2417 HC3    26.455055   -4.796019   22.804053 H    352 MOH     0.0372 ****
2418 O1     26.116728   -4.956052   20.778899 O    352 MOH    -0.6497 ****
2419 HO1    26.398475   -5.554544   20.083106 H    352 MOH     0.4215 ****
2420 HC1    27.376506   -9.394936    1.527917 H    353 MOH     0.0372 ****
2421 C1     28.300267   -9.206734    0.979909 C    353 MOH     0.1166 ****
2422 HC2    28.890896  -10.121618    1.017386 H    353 MOH     0.0372 ****
2423 HC3    28.822769   -8.383297    1.467105 H    353 MOH     0.0372 ****
2424 O1     28.027180   -8.854416   -0.374201 O    353 MOH    -0.6497 ****
2425 HO1    28.808912   -8.432287   -0.737653 H    353 MOH     0.4215 ****
2426 HC1    31.484353   -0.139131   11.549034 H    354 MOH     0.0372 ****
2427 C1     30.469372   -0.522476   11.445089 C    354 MOH     0.1166 ****
2428 HC2    29.748261    0.294837   11.466302 H    354 MOH     0.0372 ****
2429 HC3    30.234390   -1.217315   12.251191 H    354 MOH     0.0372 ****
2430 O1     30.341777   -1.234461   10.262807 O    354 MOH    -0.6497 ****
2431 HO1    31.062310   -1.867654   10.230987 H    354 MOH     0.4215 ****
2432 HC1    24.963182  -14.133066   12.438574 H    355 MOH     0.0372 ****
2433 C1     25.819970  -14.391079   11.814906 C    355 MOH     0.1166 ****
2434 HC2    26.005877  -13.597852   11.091536 H    355 MOH     0.0372 ****
2435 HC3    25.574019  -15.294940   11.257706 H    355 MOH     0.0372 ****
2436 O1     26.983331  -14.581731   12.616058 O    355 MOH    -0.6497 ****
2437 HO1    27.679615  -14.929558   12.054615 H    355 MOH     0.4215 ****
2438 HC1    31.017854  -14.473137   11.621866 H    356 MOH     0.0372 ****
2439 C1     30.519601  -15.248808   11.042038 C    356 MOH     0.1166 ****
2440 HC2    31.246485  -15.994270   10.719598 H    356 MOH     0.0372 ****
2441 HC3    30.057144  -14.774832   10.175833 H    356 MOH     0.0372 ****
2442 O1     29.544457  -15.879552   11.838948 O    356 MOH    -0.6497 ****
2443 HO1    30.016152  -16.248608   12.588481 H    356 MOH     0.4215 ****
2444 HC1    30.342355   -2.774374    7.328314 H    357 MOH     0.0372 ****
2445 C1     30.935293   -3.112812    6.479078 C    357 MOH     0.1166 ****
2446 HC2    31.302488   -4.108529    6.727273 H    357 MOH     0.0372 ****
2447 HC3    31.782266   -2.442876    6.327050 H    357 MOH     0.0372 ****
2448 O1     30.131044   -3.163843    5.308817 O    357 MOH    -0.6497 ****
2449 HO1    30.538076   -3.814182    4.731110 H    357 MOH     0.4215 ****
2450 HC1    26.098830   -2.453490   12.990825 H    358 MOH     0.0372 ****
2451 C1     26.280118   -3.491666   13.270132 C    358 MOH     0.1166 ****
2452 HC2    25.620784   -4.128941   12.681112 H    358 MOH     0.0372 ****
2453 HC3    26.055529   -3.646392   14.325842 H    358 MOH     0.0372 ****
2454 O1     27.610333   -3.887258   13.029008 O    358 MOH    -0.6497 ****
2455 HO1    27.789889   -3.779073   12.092092 H    358 MOH     0.4215 ****
2456 HC1    29.987284   -8.241635   16.649395 H    359 MOH     0.0372 ****
2457 C1     30.441081   -7.362268   17.106186 C    359 MOH     0.1166 ****
2458 HC2    31.278239   -7.045467   16.483932 H    359 MOH     0.0372 ****
2459 HC3    30.744768   -7.611299   18.123006 H    359 MOH     0.0372 ****
2460 O1     29.490763   -6.364509   17.070831 O    359 MOH    -0.6497 ****
2461 HO1    29.162828   -6.308987   16.169977 H    359 MOH     0.4215 ****
2462 HC1    21.820087    3.230959   14.320185 H    360 MOH     0.0372 ****
2463 C1     20.912493    3.167272   14.919812 C    360 MOH     0.1166 ****
2464 HC2    20.301656    2.320565   14.607271 H    360 MOH     0.0372 ****
2465 HC3    20.363433    4.099303   14.787583 H    360 MOH     0.0372 ****
2466 O1     21.284306    2.983969   16.244223 O    360 MOH    -0.6497 ****
2467 HO1    21.811427    2.181352   16.242809 H    360 MOH     0.4215 ****
2468 HC1    29.356818  -10.840543    9.296899 H    361 MOH     0.0372 ****
2469 C1     30.284042  -11.017315    9.840664 C    361 MOH     0.1166 ****
2470 HC2    30.218224  -11.941997   10.414128 H    361 MOH     0.0372 ****
2471 HC3    30.507477  -10.180814   10.503223 H    361 MOH     0.0372 ****
2472 O1     31.287477  -11.119377    8.910111 O    361 MOH    -0.6497 ****
2473 HO1    32.097499  -10.778490    9.296899 H    361 MOH     0.4215 ****
2474 HC1    27.259882  -10.696432    4.024004 H    362 MOH     0.0372 ****
2475 C1     27.539896  -11.604784    4.557869 C    362 MOH     0.1166 ****
2476 HC2    28.348187  -12.100398    4.020468 H    362 MOH     0.0372 ****
2477 HC3    26.709089  -12.310646    4.581204 H    362 MOH     0.0372 ****
2478 O1     27.977528  -11.343505    5.877330 O    362 MOH    -0.6497 ****
2479 HO1    27.629963  -12.048142    6.428874 H    362 MOH     0.4215 ****
2480 HC1    26.849385   -9.826863   20.946483 H    363 MOH     0.0372 ****
2481 C1     27.194641  -10.669896   20.348978 C    363 MOH     0.1166 ****
2482 HC2    27.934804  -11.201843   20.947897 H    363 MOH     0.0372 ****
2483 HC3    27.636314  -10.284101   19.430446 H    363 MOH     0.0372 ****
2484 O1     26.142131  -11.587638   20.015223 O    363 MOH    -0.6497 ****
2485 HO1    26.420992  -12.100806   19.253669 H    363 MOH     0.4215 ****
2486 HC1    31.914479  -21.506438   11.201845 H    364 MOH     0.0372 ****
2487 C1     31.881570  -20.421314   11.102850 C    364 MOH     0.1166 ****
2488 HC2    32.326707  -19.952237   11.980369 H    364 MOH     0.0372 ****
2489 HC3    30.844072  -20.095532   11.027896 H    364 MOH     0.0372 ****
2490 O1     32.567463  -20.044093    9.937538 O    364 MOH    -0.6497 ****
2491 HO1    32.669076  -19.090833    9.977843 H    364 MOH     0.4215 ****
2492 HC1    27.368423   -9.162643    9.492060 H    365 MOH     0.0372 ****
2493 C1     26.737957   -9.476178   10.323618 C    365 MOH     0.1166 ****
2494 HC2    25.761658   -9.788896    9.953094 H    365 MOH     0.0372 ****
2495 HC3    26.567639   -8.649067   11.013754 H    365 MOH     0.0372 ****
2496 O1     27.340133  -10.530275   11.019411 O    365 MOH    -0.6497 ****
2497 HO1    26.689459  -10.884634   11.628937 H    365 MOH     0.4215 ****
2498 HC1    30.030585   -4.430229   12.635857 H    366 MOH     0.0372 ****
2499 C1     30.687033   -4.154661   13.461051 C    366 MOH     0.1166 ****
2500 HC2    30.140282   -4.190587   14.404331 H    366 MOH     0.0372 ****
2501 HC3    31.033443   -3.131999   13.310437 H    366 MOH     0.0372 ****
2502 O1     31.805938   -5.026679   13.526105 O    366 MOH    -0.6497 ****
2503 HO1    32.411001   -4.700081   14.196442 H    366 MOH     0.4215 ****
2504 HC1    26.486810    5.678815   12.683940 H    367 MOH     0.0372 ****
2505 C1     25.579215    6.058486   12.214421 C    367 MOH     0.1166 ****
2506 HC2    25.709696    6.038482   11.131841 H    367 MOH     0.0372 ****
2507 HC3    25.436032    7.089313   12.536155 H    367 MOH     0.0372 ****
2508 O1     24.438948    5.265260   12.588481 O    367 MOH    -0.6497 ****
2509 HO1    23.665876    5.770263   12.326144 H    367 MOH     0.4215 ****
2510 HC1    28.644367   -2.791112   19.195687 H    368 MOH     0.0372 ****
2511 C1     29.226336   -2.548612   18.306146 C    368 MOH     0.1166 ****
2512 HC2    29.189963   -3.370416   17.591261 H    368 MOH     0.0372 ****
2513 HC3    30.253443   -2.405317   18.643436 H    368 MOH     0.0372 ****
2514 O1     28.760415   -1.304272   17.774402 O    368 MOH    -0.6497 ****
2515 HO1    29.176107   -0.626988   18.312510 H    368 MOH     0.4215 ****
2516 HC1    26.138667   -7.357369   16.867184 H    369 MOH     0.0372 ****
2517 C1     26.301480   -7.581497   17.921480 C    369 MOH     0.1166 ****
2518 HC2    26.869015   -8.508221   18.013404 H    369 MOH     0.0372 ****
2519 HC3    25.317675   -7.699073   18.375443 H    369 MOH     0.0372 ****
2520 O1     26.994300   -6.504946   18.513329 O    369 MOH    -0.6497 ****
2521 HO1    27.832613   -6.414315   18.055123 H    369 MOH     0.4215 ****
2522 HC1    24.074063  -13.423530   21.626720 H    370 MOH     0.0372 ****
2523 C1     23.680887  -12.988746   22.545252 C    370 MOH     0.1166 ****
2524 HC2    23.496712  -11.924034   22.403830 H    370 MOH     0.0372 ****
2525 HC3    24.380058  -13.132857   23.369031 H    370 MOH     0.0372 ****
2526 O1     22.516372  -13.649700   22.874056 O    370 MOH    -0.6497 ****
2527 HO1    22.092019  -13.200218   23.608740 H    370 MOH     0.4215 ****
2528 HC1    25.860962   -7.462289    7.531253 H    371 MOH     0.0372 ****
2529 C1     25.727594   -8.484951    7.178407 C    371 MOH     0.1166 ****
2530 HC2    24.728778   -8.562518    6.749900 H    371 MOH     0.0372 ****
2531 HC3    25.800917   -9.201835    7.995822 H    371 MOH     0.0372 ****
2532 O1     26.647890   -8.762151    6.166537 O    371 MOH    -0.6497 ****
2533 HO1    26.763938   -9.710104    6.074613 H    371 MOH     0.4215 ****
2534 HC1    28.047965  -16.736873    6.488978 H    372 MOH     0.0372 ****
2535 C1     27.311266  -16.391087    7.213762 C    372 MOH     0.1166 ****
2536 HC2    27.040488  -17.199011    7.894706 H    372 MOH     0.0372 ****
2537 HC3    26.402516  -16.091433    6.693332 H    372 MOH     0.0372 ****
2538 O1     27.751207  -15.309637    8.007843 O    372 MOH    -0.6497 ****
2539 HO1    28.698638  -15.378223    8.143608 H    372 MOH     0.4215 ****
2540 HC1    28.996551   -0.181589    6.841117 H    373 MOH     0.0372 ****
2541 C1     28.149001   -0.846217    7.010823 C    373 MOH     0.1166 ****
2542 HC2    27.283553   -0.202409    7.167093 H    373 MOH     0.0372 ****
2543 HC3    28.381673   -1.447975    7.889049 H    373 MOH     0.0372 ****
2544 O1     28.015633   -1.547996    5.795306 O    373 MOH    -0.6497 ****
2545 HO1    28.861451   -1.953795    5.590245 H    373 MOH     0.4215 ****
2546 HC1    26.885181  -18.987546   12.251191 H    374 MOH     0.0372 ****
2547 C1     27.920370  -18.683401   12.094920 C    374 MOH     0.1166 ****
2548 HC2    28.509268  -19.586038   11.927336 H    374 MOH     0.0372 ****
2549 HC3    28.293338  -18.126551   12.953348 H    374 MOH     0.0372 ****
2550 O1     27.918061  -17.951820   10.918295 O    374 MOH    -0.6497 ****
2551 HO1    28.555456  -17.242693   11.027896 H    374 MOH     0.4215 ****
2552 HC1    30.413946   -4.799285   21.422366 H    375 MOH     0.0372 ****
2553 C1     30.477454   -5.722334   20.846074 C    375 MOH     0.1166 ****
2554 HC2    31.509179   -5.926459   20.560403 H    375 MOH     0.0372 ****
2555 HC3    29.860267   -5.610474   19.955119 H    375 MOH     0.0372 ****
2556 O1     29.959571   -6.775615   21.611163 O    375 MOH    -0.6497 ****
2557 HO1    30.209564   -7.600277   21.186899 H    375 MOH     0.4215 ****
2558 HC1    18.362914   -5.491674   12.939913 H    376 MOH     0.0372 ****
2559 C1     18.196637   -4.421247   13.058707 C    376 MOH     0.1166 ****
2560 HC2    18.549975   -4.100364   14.038757 H    376 MOH     0.0372 ****
2561 HC3    17.129694   -4.208142   12.986582 H    376 MOH     0.0372 ****
2562 O1     18.883684   -3.706813   12.048958 O    376 MOH    -0.6497 ****
2563 HO1    18.793040   -4.236719   11.254170 H    376 MOH     0.4215 ****
2564 HC1    25.026113    0.824335   10.090980 H    377 MOH     0.0372 ****
2565 C1     25.897335    0.169097   10.071888 C    377 MOH     0.1166 ****
2566 HC2    25.896758   -0.402451    9.144164 H    377 MOH     0.0372 ****
2567 HC3    25.869622   -0.540031   10.899910 H    377 MOH     0.0372 ****
2568 O1     27.075707    0.953750   10.145427 O    377 MOH    -0.6497 ****
2569 HO1    27.046262    1.464468   10.957893 H    377 MOH     0.4215 ****
2570 HC1    32.000505   -7.056490    4.640601 H    378 MOH     0.0372 ****
2571 C1     31.076167   -6.541281    4.378971 C    378 MOH     0.1166 ****
2572 HC2    30.363139   -6.588229    5.202751 H    378 MOH     0.0372 ****
2573 HC3    30.640267   -6.987496    3.485895 H    378 MOH     0.0372 ****
2574 O1     31.314035   -5.192020    4.099664 O    378 MOH    -0.6497 ****
2575 HO1    31.818639   -5.161810    3.283663 H    378 MOH     0.4215 ****
2576 HC1    23.722456    0.136845   14.692831 H    379 MOH     0.0372 ****
2577 C1     23.351798   -0.259972   15.637525 C    379 MOH     0.1166 ****
2578 HC2    24.206276   -0.382855   16.302913 H    379 MOH     0.0372 ****
2579 HC3    22.880102   -1.235686   15.521560 H    379 MOH     0.0372 ****
2580 O1     22.496742    0.675324   16.199675 O    379 MOH    -0.6497 ****
2581 HO1    22.681494    0.676957   17.141541 H    379 MOH     0.4215 ****
2582 HC1    22.260028  -17.276169    5.180123 H    380 MOH     0.0372 ****
2583 C1     22.773870  -16.967126    6.090170 C    380 MOH     0.1166 ****
2584 HC2    23.856979  -16.993253    5.974204 H    380 MOH     0.0372 ****
2585 HC3    22.470761  -17.606442    6.920313 H    380 MOH     0.0372 ****
2586 O1     22.334506  -15.709721    6.373012 O    380 MOH    -0.6497 ****
2587 HO1    22.002530  -15.347605    5.547819 H    380 MOH     0.4215 ****
2588 HC1    23.010583   -4.538006   20.431002 H    381 MOH     0.0372 ****
2589 C1     22.944188   -4.798469   21.487420 C    381 MOH     0.1166 ****
2590 HC2    23.052153   -5.876652   21.611163 H    381 MOH     0.0372 ****
2591 HC3    21.960383   -4.483709   21.836023 H    381 MOH     0.0372 ****
2592 O1     23.927993   -4.079543   22.210790 O    381 MOH    -0.6497 ****
2593 HO1    24.750717   -4.188546   21.727836 H    381 MOH     0.4215 ****
2594 HC1    30.557129   -1.977065   25.279633 H    382 MOH     0.0372 ****
2595 C1     30.994760   -2.880518   24.854662 C    382 MOH     0.1166 ****
2596 HC2    31.238402   -2.685375   23.810973 H    382 MOH     0.0372 ****
2597 HC3    30.289238   -3.706813   24.948000 H    382 MOH     0.0372 ****
2598 O1     32.130986   -3.178131   25.602074 O    382 MOH    -0.6497 ****
2599 HO1    32.758565   -2.452266   25.553991 H    382 MOH     0.4215 ****
2600 HC1    27.337246   -9.174890   24.646773 H    383 MOH     0.0372 ****
2601 C1     26.926750  -10.131416   24.969921 C    383 MOH     0.1166 ****
2602 HC2    27.705596  -10.894024   24.991134 H    383 MOH     0.0372 ****
2603 HC3    26.141554  -10.410250   24.267764 H    383 MOH     0.0372 ****
2604 O1     26.330925   -9.986896   26.225742 O    383 MOH    -0.6497 ****
2605 HO1    26.951576   -9.537823   26.804156 H    383 MOH     0.4215 ****
2606 HC1    23.720147    1.550609   11.617623 H    384 MOH     0.0372 ****
2607 C1     24.286528    1.855570   12.497971 C    384 MOH     0.1166 ****
2608 HC2    24.672198    0.961915   12.989410 H    384 MOH     0.0372 ****
2609 HC3    23.632390    2.379353   13.194471 H    384 MOH     0.0372 ****
2610 O1     25.381184    2.670026   12.092799 O    384 MOH    -0.6497 ****
2611 HO1    25.030155    3.545310   11.916022 H    384 MOH     0.4215 ****
2612 HC1    24.111591  -14.067338    8.913647 H    385 MOH     0.0372 ****
2613 C1     23.229399  -13.483951    9.174569 C    385 MOH     0.1166 ****
2614 HC2    23.533663  -12.485376    9.485696 H    385 MOH     0.0372 ****
2615 HC3    22.694196  -13.973849    9.987742 H    385 MOH     0.0372 ****
2616 O1     22.408407  -13.428838    8.007136 O    385 MOH    -0.6497 ****
2617 HO1    22.317763  -14.317594    7.654290 H    385 MOH     0.4215 ****
2618 HC1    25.841909  -12.204501   13.980067 H    386 MOH     0.0372 ****
2619 C1     25.530140  -11.161018   13.944712 C    386 MOH     0.1166 ****
2620 HC2    26.336121  -10.503739   14.272809 H    386 MOH     0.0372 ****
2621 HC3    24.687209  -11.037727   14.623534 H    386 MOH     0.0372 ****
2622 O1     25.076920  -10.814824   12.650706 O    386 MOH    -0.6497 ****
2623 HO1    24.865610   -9.879119   12.680405 H    386 MOH     0.4215 ****
2624 HC1    21.567208  -13.033653   14.796775 H    387 MOH     0.0372 ****
2625 C1     22.338548  -13.326775   15.509539 C    387 MOH     0.1166 ****
2626 HC2    23.236327  -13.583155   14.946682 H    387 MOH     0.0372 ****
2627 HC3    22.008303  -14.215124   16.048354 H    387 MOH     0.0372 ****
2628 O1     22.598933  -12.249408   16.418171 O    387 MOH    -0.6497 ****
2629 HO1    21.932671  -12.274311   17.109015 H    387 MOH     0.4215 ****
2630 HC1    21.437881  -12.422914   20.679904 H    388 MOH     0.0372 ****
2631 C1     21.921124  -12.573557   19.714703 C    388 MOH     0.1166 ****
2632 HC2    22.376653  -13.563151   19.694904 H    388 MOH     0.0372 ****
2633 HC3    22.681494  -11.804418   19.576110 H    388 MOH     0.0372 ****
2634 O1     20.889976  -12.524159   18.728289 O    388 MOH    -0.6497 ****
2635 HO1    20.377289  -11.723176   18.858397 H    388 MOH     0.4215 ****
2636 HC1    30.954923   -0.322026   16.825465 H    389 MOH     0.0372 ****
2637 C1     31.900623    0.020902   17.245486 C    389 MOH     0.1166 ****
2638 HC2    31.786885    0.995391   17.721369 H    389 MOH     0.0372 ****
2639 HC3    32.630394    0.134395   16.443627 H    389 MOH     0.0372 ****
2640 O1     32.342296   -0.901330   18.217758 O    389 MOH    -0.6497 ****
2641 HO1    33.173680   -1.289575   17.935622 H    389 MOH     0.4215 ****
2642 HC1    30.872940   -8.387788   11.896223 H    390 MOH     0.0372 ****
2643 C1     31.654672   -7.714586   11.544791 C    390 MOH     0.1166 ****
2644 HC2    32.214124   -8.149371   10.716769 H    390 MOH     0.0372 ****
2645 HC3    32.339987   -7.509646   12.366449 H    390 MOH     0.0372 ****
2646 O1     31.080786   -6.515153   11.099314 O    390 MOH    -0.6497 ****
2647 HO1    31.275930   -5.871753   11.785208 H    390 MOH     0.4215 ****
2648 HC1    30.271225    3.812141   16.259072 H    391 MOH     0.0372 ****
2649 C1     29.470440    3.418181   16.884862 C    391 MOH     0.1166 ****
2650 HC2    28.904637    2.687825   16.305741 H    391 MOH     0.0372 ****
2651 HC3    28.797827    4.195078   17.246193 H    391 MOH     0.0372 ****
2652 O1     29.967539    2.677211   17.929258 O    391 MOH    -0.6497 ****
2653 HO1    30.511980    3.273253   18.448275 H    391 MOH     0.4215 ****
2654 HC1    29.483142   10.366976   17.425798 H    392 MOH     0.0372 ****
2655 C1     30.523527   10.394328   17.099822 C    392 MOH     0.1166 ****
2656 HC2    31.107806    9.754603   17.762381 H    392 MOH     0.0372 ****
2657 HC3    30.864741   11.428013   17.153562 H    392 MOH     0.0372 ****
2658 O1     30.590500    9.912187   15.776825 O    392 MOH    -0.6497 ****
2659 HO1    29.995829    9.159377   15.732985 H    392 MOH     0.4215 ****
2660 HC1    29.309360    5.347155    8.410187 H    393 MOH     0.0372 ****
2661 C1     29.352083    5.588838    9.472261 C    393 MOH     0.1166 ****
2662 HC2    30.389005    5.526784    9.803187 H    393 MOH     0.0372 ****
2663 HC3    28.754526    4.887059   10.054210 H    393 MOH     0.0372 ****
2664 O1     28.918493    6.882576    9.741669 O    393 MOH    -0.6497 ****
2665 HO1    28.148885    7.074045    9.200732 H    393 MOH     0.4215 ****
2666 HC1    26.706087    9.284709   16.125429 H    394 MOH     0.0372 ****
2667 C1     26.271342    8.399219   16.588584 C    394 MOH     0.1166 ****
2668 HC2    25.859114    7.724384   15.838344 H    394 MOH     0.0372 ****
2669 HC3    25.449196    8.685401   17.245486 H    394 MOH     0.0372 ****
2670 O1     27.176628    7.696623   17.384079 O    394 MOH    -0.6497 ****
2671 HO1    26.650084    6.978923   17.744703 H    394 MOH     0.4215 ****
2672 HC1    32.618731    7.456573    8.796974 H    395 MOH     0.0372 ****
2673 C1     32.078331    8.326142    8.423622 C    395 MOH     0.1166 ****
2674 HC2    31.634926    7.996686    7.483877 H    395 MOH     0.0372 ****
2675 HC3    32.801174    9.129167    8.277251 H    395 MOH     0.0372 ****
2676 O1     31.087021    8.664580    9.417107 O    395 MOH    -0.6497 ****
2677 HO1    30.451358    7.950554    9.499838 H    395 MOH     0.4215 ****
2678 HC1    31.062195    0.684551    4.487866 H    396 MOH     0.0372 ****
2679 C1     31.475000    1.692108    4.451096 C    396 MOH     0.1166 ****
2680 HC2    31.389553    2.162818    5.430439 H    396 MOH     0.0372 ****
2681 HC3    30.898228    2.279985    3.736918 H    396 MOH     0.0372 ****
2682 O1     32.814453    1.636586    4.019761 O    396 MOH    -0.6497 ****
2683 HO1    32.847939    0.976040    3.323968 H    396 MOH     0.4215 ****
2684 HC1    30.878597    7.785622   18.864761 H    397 MOH     0.0372 ****
2685 C1     30.487154    7.016482   18.200080 C    397 MOH     0.1166 ****
2686 HC2    30.986562    7.050366   17.232051 H    397 MOH     0.0372 ****
2687 HC3    29.415592    7.178965   18.075629 H    397 MOH     0.0372 ****
2688 O1     30.628027    5.749687   18.784858 O    397 MOH    -0.6497 ****
2689 HO1    30.181736    5.749279   19.634093 H    397 MOH     0.4215 ****
2690 HC1    30.815666   14.576015   15.976229 H    398 MOH     0.0372 ****
2691 C1     31.678228   15.038969   15.496811 C    398 MOH     0.1166 ****
2692 HC2    32.465156   15.153687   16.242809 H    398 MOH     0.0372 ****
2693 HC3    31.361262   16.031012   15.174370 H    398 MOH     0.0372 ****
2694 O1     32.061011   14.251458   14.337863 O    398 MOH    -0.6497 ****
2695 HO1    31.367036   14.297590   13.676718 H    398 MOH     0.4215 ****
2696 HC1    30.966932    1.904397   12.688890 H    399 MOH     0.0372 ****
2697 C1     31.610678    2.688642   12.292203 C    399 MOH     0.1166 ****
2698 HC2    31.644741    3.490033   13.029716 H    399 MOH     0.0372 ****
2699 HC3    31.211729    3.128733   11.377207 H    399 MOH     0.0372 ****
2700 O1     32.922417    2.224055   12.061686 O    399 MOH    -0.6497 ****
2701 HO1    33.364668    3.011158   11.736417 H    399 MOH     0.4215 ****
2702 HC1    29.961188   10.910762   12.939913 H    400 MOH     0.0372 ****
2703 C1     29.794911   11.981189   13.058707 C    400 MOH     0.1166 ****
2704 HC2    30.148249   12.302072   14.038757 H    400 MOH     0.0372 ****
2705 HC3    28.727968   12.194295   12.986582 H    400 MOH     0.0372 ****
2706 O1     30.481958   12.695624   12.048958 O    400 MOH    -0.6497 ****
2707 HO1    30.391314   12.165717   11.254170 H    400 MOH     0.4215 ****
2708 HC1    27.234940    8.548229   11.014461 H    401 MOH     0.0372 ****
2709 C1     27.793815    9.180606   11.703890 C    401 MOH     0.1166 ****
2710 HC2    27.838848   10.181223   11.273262 H    401 MOH     0.0372 ****
2711 HC3    28.807065    8.786238   11.784500 H    401 MOH     0.0372 ****
2712 O1     27.128708    9.192853   12.992239 O    401 MOH    -0.6497 ****
2713 HO1    27.595784    8.574766   13.557924 H    401 MOH     0.4215 ****
2714 HC1    28.736051    5.407167   14.346348 H    402 MOH     0.0372 ****
2715 C1     29.323793    6.322868   14.407867 C    402 MOH     0.1166 ****
2716 HC2    29.789715    6.533524   13.444787 H    402 MOH     0.0372 ****
2717 HC3    30.112454    6.174266   15.144672 H    402 MOH     0.0372 ****
2718 O1     28.542061    7.447592   14.783340 O    402 MOH    -0.6497 ****
2719 HO1    28.141957    7.283476   15.640354 H    402 MOH     0.4215 ****
2720 HC1    25.637527  -21.909134    2.423255 H    403 MOH     0.0372 ****
2721 C1     25.183153  -21.611113    1.478561 C    403 MOH     0.1166 ****
2722 HC2    24.102353  -21.745835    1.526644 H    403 MOH     0.0372 ****
2723 HC3    25.605773  -22.235733    0.690844 H    403 MOH     0.0372 ****
2724 O1     25.464900  -20.253688    1.219052 O    403 MOH    -0.6497 ****
2725 HO1    25.195277  -20.059361    0.318198 H    403 MOH     0.4215 ****
2726 HC1    26.678490  -18.995466    5.546546 H    404 MOH     0.0372 ****
2727 C1     26.336699  -19.664994    4.757415 C    404 MOH     0.1166 ****
2728 HC2    25.838445  -20.541094    5.173194 H    404 MOH     0.0372 ****
2729 HC3    27.209075  -19.983019    4.186780 H    404 MOH     0.0372 ****
2730 O1     25.555544  -18.935046    3.835348 O    404 MOH    -0.6497 ****
2731 HO1    25.582679  -19.422086    3.008740 H    404 MOH     0.4215 ****
2732 HC1    30.702621  -22.863619   -6.366082 H    405 MOH     0.0372 ****
2733 C1     30.121807  -22.482315   -5.526039 C    405 MOH     0.1166 ****
2734 HC2    30.419142  -21.475167   -5.234004 H    405 MOH     0.0372 ****
2735 HC3    30.329653  -23.137554   -4.679632 H    405 MOH     0.0372 ****
2736 O1     28.742517  -22.525998   -5.811003 O    405 MOH    -0.6497 ****
2737 HO1    28.337217  -23.200832   -5.261581 H    405 MOH     0.4215 ****
2738 HC1    29.938787  -24.738703    7.523617 H    406 MOH     0.0372 ****
2739 C1     29.896063  -23.864644    6.873785 C    406 MOH     0.1166 ****
2740 HC2    30.696848  -23.164498    7.112080 H    406 MOH     0.0372 ****
2741 HC3    28.956714  -23.348618    7.068947 H    406 MOH     0.0372 ****
2742 O1     29.896640  -24.219003    5.482199 O    406 MOH    -0.6497 ****
2743 HO1    30.005759  -23.426593    4.951162 H    406 MOH     0.4215 ****
2744 HC1    19.217392  -26.430076    1.771303 H    407 MOH     0.0372 ****
2745 C1     20.079954  -25.967122    1.291884 C    407 MOH     0.1166 ****
2746 HC2    20.866882  -25.852405    2.037882 H    407 MOH     0.0372 ****
2747 HC3    19.762988  -24.975079    0.969444 H    407 MOH     0.0372 ****
2748 O1     20.462737  -26.754633    0.132936 O    407 MOH    -0.6497 ****
2749 HO1    19.768762  -26.708501   -0.528208 H    407 MOH     0.4215 ****
2750 HC1    21.820087  -21.372696    0.115259 H    408 MOH     0.0372 ****
2751 C1     20.912493  -21.436383    0.714885 C    408 MOH     0.1166 ****
2752 HC2    20.301656  -22.283090    0.402344 H    408 MOH     0.0372 ****
2753 HC3    20.363433  -20.504352    0.582656 H    408 MOH     0.0372 ****
2754 O1     21.284306  -21.619686    2.039296 O    408 MOH    -0.6497 ****
2755 HO1    21.811427  -22.422302    2.037882 H    408 MOH     0.4215 ****
2756 HC1    26.486810  -18.924839   -1.520986 H    409 MOH     0.0372 ****
2757 C1     25.579215  -18.545169   -1.990505 C    409 MOH     0.1166 ****
2758 HC2    25.709696  -18.565173   -3.073086 H    409 MOH     0.0372 ****
2759 HC3    25.436032  -17.514342   -1.668772 H    409 MOH     0.0372 ****
2760 O1     24.438948  -19.338395   -1.616446 O    409 MOH    -0.6497 ****
2761 HO1    23.665876  -18.833392   -1.878782 H    409 MOH     0.4215 ****
2762 HC1    25.026113  -23.779320   -4.113947 H    410 MOH     0.0372 ****
2763 C1     25.897335  -24.434558   -4.133039 C    410 MOH     0.1166 ****
2764 HC2    25.896758  -25.006106   -5.060763 H    410 MOH     0.0372 ****
2765 HC3    25.869622  -25.143686   -3.305017 H    410 MOH     0.0372 ****
2766 O1     27.075707  -23.649905   -4.059500 O    410 MOH    -0.6497 ****
2767 HO1    27.046262  -23.139187   -3.247034 H    410 MOH     0.4215 ****
2768 HC1    23.722457  -24.466810    0.487904 H    411 MOH     0.0372 ****
2769 C1     23.351798  -24.863627    1.432599 C    411 MOH     0.1166 ****
2770 HC2    24.206276  -24.986510    2.097986 H    411 MOH     0.0372 ****
2771 HC3    22.880102  -25.839341    1.316633 H    411 MOH     0.0372 ****
2772 O1     22.496742  -23.928330    1.994749 O    411 MOH    -0.6497 ****
2773 HO1    22.681494  -23.926697    2.936615 H    411 MOH     0.4215 ****
2774 HC1    23.720147  -23.053046   -2.587303 H    412 MOH     0.0372 ****
2775 C1     24.286528  -22.748085   -1.706955 C    412 MOH     0.1166 ****
2776 HC2    24.672198  -23.641740   -1.215516 H    412 MOH     0.0372 ****
2777 HC3    23.632390  -22.224302   -1.010455 H    412 MOH     0.0372 ****
2778 O1     25.381184  -21.933629   -2.112128 O    412 MOH    -0.6497 ****
2779 HO1    25.030155  -21.058345   -2.288904 H    412 MOH     0.4215 ****
2780 HC1    30.271225  -20.791514    2.054146 H    413 MOH     0.0372 ****
2781 C1     29.470440  -21.185473    2.679935 C    413 MOH     0.1166 ****
2782 HC2    28.904637  -21.915830    2.100815 H    413 MOH     0.0372 ****
2783 HC3    28.797827  -20.408577    3.041267 H    413 MOH     0.0372 ****
2784 O1     29.967539  -21.926444    3.724332 O    413 MOH    -0.6497 ****
2785 HO1    30.511980  -21.330402    4.243348 H    413 MOH     0.4215 ****
2786 HC1    29.483142  -14.236679    3.220872 H    414 MOH     0.0372 ****
2787 C1     30.523527  -14.209327    2.894896 C    414 MOH     0.1166 ****
2788 HC2    31.107806  -14.849052    3.557455 H    414 MOH     0.0372 ****
2789 HC3    30.864741  -13.175642    2.948636 H    414 MOH     0.0372 ****
2790 O1     30.590500  -14.691468    1.571899 O    414 MOH    -0.6497 ****
2791 HO1    29.995829  -15.444278    1.528058 H    414 MOH     0.4215 ****
2792 HC1    29.309360  -19.256500   -5.794740 H    415 MOH     0.0372 ****
2793 C1     29.352084  -19.014817   -4.732665 C    415 MOH     0.1166 ****
2794 HC2    30.389005  -19.076871   -4.401739 H    415 MOH     0.0372 ****
2795 HC3    28.754526  -19.716596   -4.150716 H    415 MOH     0.0372 ****
2796 O1     28.918494  -17.721079   -4.463258 O    415 MOH    -0.6497 ****
2797 HO1    28.148886  -17.529610   -5.004194 H    415 MOH     0.4215 ****
2798 HC1    26.706087  -15.318946    1.920502 H    416 MOH     0.0372 ****
2799 C1     26.271342  -16.204436    2.383657 C    416 MOH     0.1166 ****
2800 HC2    25.859114  -16.879271    1.633417 H    416 MOH     0.0372 ****
2801 HC3    25.449196  -15.918254    3.040560 H    416 MOH     0.0372 ****
2802 O1     27.176628  -16.907031    3.179152 O    416 MOH    -0.6497 ****
2803 HO1    26.650084  -17.624732    3.539777 H    416 MOH     0.4215 ****
2804 HC1    32.618731  -17.147081   -5.407952 H    417 MOH     0.0372 ****
2805 C1     32.078332  -16.277513   -5.781305 C    417 MOH     0.1166 ****
2806 HC2    31.634927  -16.606969   -6.721050 H    417 MOH     0.0372 ****
2807 HC3    32.801174  -15.474488   -5.927676 H    417 MOH     0.0372 ****
2808 O1     31.087021  -15.939075   -4.787820 O    417 MOH    -0.6497 ****
2809 HO1    30.451358  -16.653101   -4.705088 H    417 MOH     0.4215 ****
2810 HC1    31.062195  -23.919104   -9.717061 H    418 MOH     0.0372 ****
2811 C1     31.475001  -22.911547   -9.753830 C    418 MOH     0.1166 ****
2812 HC2    31.389553  -22.440837   -8.774488 H    418 MOH     0.0372 ****
2813 HC3    30.898228  -22.323670  -10.468008 H    418 MOH     0.0372 ****
2814 O1     32.814453  -22.967069  -10.185166 O    418 MOH    -0.6497 ****
2815 HO1    32.847940  -23.627615  -10.880959 H    418 MOH     0.4215 ****
2816 HC1    30.878598  -16.818033    4.659834 H    419 MOH     0.0372 ****
2817 C1     30.487154  -17.587173    3.995154 C    419 MOH     0.1166 ****
2818 HC2    30.986562  -17.553288    3.027125 H    419 MOH     0.0372 ****
2819 HC3    29.415592  -17.424690    3.870703 H    419 MOH     0.0372 ****
2820 O1     30.628028  -18.853967    4.579931 O    419 MOH    -0.6497 ****
2821 HO1    30.181736  -18.854376    5.429166 H    419 MOH     0.4215 ****
2822 HC1    30.815666  -10.027639    1.771303 H    420 MOH     0.0372 ****
2823 C1     31.678228   -9.564686    1.291884 C    420 MOH     0.1166 ****
2824 HC2    32.465156   -9.449968    2.037882 H    420 MOH     0.0372 ****
2825 HC3    31.361262   -8.572643    0.969444 H    420 MOH     0.0372 ****
2826 O1     32.061011  -10.352197    0.132936 O    420 MOH    -0.6497 ****
2827 HO1    31.367036  -10.306065   -0.528208 H    420 MOH     0.4215 ****
2828 HC1    33.418361   -4.970260    0.115259 H    421 MOH     0.0372 ****
2829 C1     32.510767   -5.033946    0.714885 C    421 MOH     0.1166 ****
2830 HC2    31.899930   -5.880653    0.402344 H    421 MOH     0.0372 ****
2831 HC3    31.961707   -4.101916    0.582656 H    421 MOH     0.0372 ****
2832 O1     32.882580   -5.217250    2.039296 O    421 MOH    -0.6497 ****
2833 HO1    33.409701   -6.019866    2.037882 H    421 MOH     0.4215 ****
2834 HC1    30.966932  -22.699258   -1.516036 H    422 MOH     0.0372 ****
2835 C1     31.610678  -21.915013   -1.912723 C    422 MOH     0.1166 ****
2836 HC2    31.644741  -21.113622   -1.175211 H    422 MOH     0.0372 ****
2837 HC3    31.211729  -21.474922   -2.827720 H    422 MOH     0.0372 ****
2838 O1     32.922418  -22.379600   -2.143240 O    422 MOH    -0.6497 ****
2839 HO1    33.364668  -21.592497   -2.468509 H    422 MOH     0.4215 ****
2840 HC1    29.961188  -13.692893   -1.265014 H    423 MOH     0.0372 ****
2841 C1     29.794911  -12.622466   -1.146220 C    423 MOH     0.1166 ****
2842 HC2    30.148250  -12.301582   -0.166170 H    423 MOH     0.0372 ****
2843 HC3    28.727968  -12.409360   -1.218345 H    423 MOH     0.0372 ****
2844 O1     30.481958  -11.908031   -2.155968 O    423 MOH    -0.6497 ****
2845 HO1    30.391314  -12.437937   -2.950756 H    423 MOH     0.4215 ****
2846 HC1    27.234940  -16.055425   -3.190465 H    424 MOH     0.0372 ****
2847 C1     27.793815  -15.423049   -2.501036 C    424 MOH     0.1166 ****
2848 HC2    27.838849  -14.422432   -2.931664 H    424 MOH     0.0372 ****
2849 HC3    28.807065  -15.817417   -2.420426 H    424 MOH     0.0372 ****
2850 O1     27.128708  -15.410801   -1.212688 O    424 MOH    -0.6497 ****
2851 HO1    27.595784  -16.028889   -0.647002 H    424 MOH     0.4215 ****
2852 HC1    28.736051  -19.196488    0.141422 H    425 MOH     0.0372 ****
2853 C1     29.323793  -18.280787    0.202940 C    425 MOH     0.1166 ****
2854 HC2    29.789715  -18.070131   -0.760139 H    425 MOH     0.0372 ****
2855 HC3    30.112454  -18.429389    0.939745 H    425 MOH     0.0372 ****
2856 O1     28.542061  -17.156063    0.578414 O    425 MOH    -0.6497 ****
2857 HO1    28.141957  -17.320179    1.435427 H    425 MOH     0.4215 ****
2858 HC1   -25.366750  -10.218291   17.461012 H    426 MOH     0.0372 ****
2859 C1    -24.829237   -9.875771   16.576421 C    426 MOH     0.1166 ****
2860 HC2   -25.157172  -10.449768   15.709508 H    426 MOH     0.0372 ****
2861 HC3   -23.769799  -10.060299   16.754612 H    426 MOH     0.0372 ****
2862 O1    -25.089622   -8.495075   16.307721 O    426 MOH    -0.6497 ****
2863 HO1   -24.830392   -8.290135   15.406867 H    426 MOH     0.4215 ****
2864 HC1   -22.801006  -17.632080   19.025132 H    427 MOH     0.0372 ****
2865 C1    -22.602397  -16.671472   19.499601 C    427 MOH     0.1166 ****
2866 HC2   -21.537763  -16.454284   19.416162 H    427 MOH     0.0372 ****
2867 HC3   -22.831605  -16.706581   20.564504 H    427 MOH     0.0372 ****
2868 O1    -23.395676  -15.675754   18.848355 O    427 MOH    -0.6497 ****
2869 HO1   -23.348334  -14.899674   19.411919 H    427 MOH     0.4215 ****
2870 HC1   -27.288749   -6.461182   22.043771 H    428 MOH     0.0372 ****
2871 C1    -27.869564   -6.079878   22.883814 C    428 MOH     0.1166 ****
2872 HC2   -27.572228   -5.072730   23.175849 H    428 MOH     0.0372 ****
2873 HC3   -27.661718   -6.735117   23.730221 H    428 MOH     0.0372 ****
2874 O1    -29.248854   -6.123561   22.598850 O    428 MOH    -0.6497 ****
2875 HO1   -29.654153   -6.798395   23.148272 H    428 MOH     0.4215 ****
2876 HC1   -22.403789  -10.644094   23.357575 H    429 MOH     0.0372 ****
2877 C1    -21.983478   -9.760645   23.838408 C    429 MOH     0.1166 ****
2878 HC2   -21.730021   -9.018858   23.081097 H    429 MOH     0.0372 ****
2879 HC3   -21.096668  -10.043561   24.404800 H    429 MOH     0.0372 ****
2880 O1    -22.988645   -9.264215   24.661480 O    429 MOH    -0.6497 ****
2881 HO1   -22.632419   -9.067848   25.530514 H    429 MOH     0.4215 ****
2882 HC1   -24.321746  -11.709214   20.483186 H    430 MOH     0.0372 ****
2883 C1    -23.578119  -12.230139   19.880731 C    430 MOH     0.1166 ****
2884 HC2   -22.662442  -11.640628   19.832648 H    430 MOH     0.0372 ****
2885 HC3   -23.914137  -12.351389   18.850477 H    430 MOH     0.0372 ****
2886 O1    -23.239792  -13.458966   20.464801 O    430 MOH    -0.6497 ****
2887 HO1   -23.943582  -13.730451   21.058064 H    430 MOH     0.4215 ****
2888 HC1   -30.614864  -17.596154   15.732843 H    431 MOH     0.0372 ****
2889 C1    -29.691104  -17.407952   15.184835 C    431 MOH     0.1166 ****
2890 HC2   -29.100474  -18.322836   15.222312 H    431 MOH     0.0372 ****
2891 HC3   -29.168602  -16.584515   15.672032 H    431 MOH     0.0372 ****
2892 O1    -29.964190  -17.055634   13.830726 O    431 MOH    -0.6497 ****
2893 HO1   -29.182458  -16.633505   13.467273 H    431 MOH     0.4215 ****
2894 HC1   -27.649016  -10.975592   21.533240 H    432 MOH     0.0372 ****
2895 C1    -27.056077  -11.314030   20.684005 C    432 MOH     0.1166 ****
2896 HC2   -26.688882  -12.309747   20.932199 H    432 MOH     0.0372 ****
2897 HC3   -26.209104  -10.644094   20.531977 H    432 MOH     0.0372 ****
2898 O1    -27.860326  -11.365061   19.513743 O    432 MOH    -0.6497 ****
2899 HO1   -27.453294  -12.015400   18.936037 H    432 MOH     0.4215 ****
2900 HC1   -28.994819   -8.382807   21.046043 H    433 MOH     0.0372 ****
2901 C1    -29.842370   -9.047435   21.215749 C    433 MOH     0.1166 ****
2902 HC2   -30.707818   -8.403628   21.372019 H    433 MOH     0.0372 ****
2903 HC3   -29.609697   -9.649193   22.093975 H    433 MOH     0.0372 ****
2904 O1    -29.975737   -9.749214   20.000232 O    433 MOH    -0.6497 ****
2905 HO1   -29.129919  -10.155013   19.795171 H    433 MOH     0.4215 ****
2906 HC1   -19.216815  -13.005402   24.251358 H    434 MOH     0.0372 ****
2907 C1    -19.663684  -12.591439   23.347676 C    434 MOH     0.1166 ****
2908 HC2   -20.691368  -12.272597   23.519503 H    434 MOH     0.0372 ****
2909 HC3   -19.633085  -13.363844   22.578344 H    434 MOH     0.0372 ****
2910 O1    -18.853085  -11.527135   22.959474 O    434 MOH    -0.6497 ****
2911 HO1   -18.671219  -10.980899   23.727392 H    434 MOH     0.4215 ****
2912 HC1   -25.990866  -15.257708   18.845527 H    435 MOH     0.0372 ****
2913 C1    -26.915204  -14.742499   18.583897 C    435 MOH     0.1166 ****
2914 HC2   -27.628231  -14.789447   19.407677 H    435 MOH     0.0372 ****
2915 HC3   -27.351103  -15.188714   17.690822 H    435 MOH     0.0372 ****
2916 O1    -26.677335  -13.393238   18.304590 O    435 MOH    -0.6497 ****
2917 HO1   -26.172731  -13.363028   17.488589 H    435 MOH     0.4215 ****
2918 HC1   -22.218575    6.151894   26.372679 H    436 MOH     0.0372 ****
2919 C1    -23.254919    6.290698   26.679563 C    436 MOH     0.1166 ****
2920 HC2   -23.818412    6.654856   25.821135 H    436 MOH     0.0372 ****
2921 HC3   -23.324778    7.040650   27.467987 H    436 MOH     0.0372 ****
2922 O1    -23.780307    5.047990   27.096756 O    436 MOH    -0.6497 ****
2923 HO1   -24.542987    5.200267   27.658906 H    436 MOH     0.4215 ****
2924 HC1    -9.352324    1.599109   29.189792 H    437 MOH     0.0372 ****
2925 C1     -8.918734    1.792210   30.170549 C    437 MOH     0.1166 ****
2926 HC2    -8.632946    2.843041   30.221461 H    437 MOH     0.0372 ****
2927 HC3    -8.030769    1.172898   30.297121 H    437 MOH     0.0372 ****
2928 O1     -9.873094    1.477451   31.178176 O    437 MOH    -0.6497 ****
2929 HO1    -9.672176    0.585837   31.470919 H    437 MOH     0.4215 ****
2930 HC1   -15.989543   -9.254580   21.557282 H    438 MOH     0.0372 ****
2931 C1    -16.176604  -10.240500   21.982253 C    438 MOH     0.1166 ****
2932 HC2   -16.568625  -10.145786   22.994830 H    438 MOH     0.0372 ****
2933 HC3   -15.219357  -10.756934   22.050842 H    438 MOH     0.0372 ****
2934 O1    -17.017804  -11.044341   21.133017 O    438 MOH    -0.6497 ****
2935 HO1   -17.733718  -11.390535   21.670419 H    438 MOH     0.4215 ****
2936 HC1   -13.359135   -8.782645   28.194186 H    439 MOH     0.0372 ****
2937 C1    -14.207840   -8.347861   28.722395 C    439 MOH     0.1166 ****
2938 HC2   -14.344095   -7.320708   28.384397 H    439 MOH     0.0372 ****
2939 HC3   -14.043295   -8.360108   29.800025 H    439 MOH     0.0372 ****
2940 O1    -15.373510   -9.045965   28.388640 O    439 MOH    -0.6497 ****
2941 HO1   -15.346375   -9.846540   28.918263 H    439 MOH     0.4215 ****
2942 HC1    -5.282582   -0.012247   24.574506 H    440 MOH     0.0372 ****
2943 C1     -5.477149    0.729132   25.349495 C    440 MOH     0.1166 ****
2944 HC2    -6.541206    0.771181   25.582133 H    440 MOH     0.0372 ****
2945 HC3    -5.175772    1.717501   25.002306 H    440 MOH     0.0372 ****
2946 O1     -4.807423    0.398859   26.560769 O    440 MOH    -0.6497 ****
2947 HO1    -5.025084   -0.495613   26.833005 H    440 MOH     0.4215 ****
2948 HC1   -21.168952    4.700571   31.041705 H    441 MOH     0.0372 ****
2949 C1    -20.565044    5.252114   31.762246 C    441 MOH     0.1166 ****
2950 HC2   -19.753289    4.616880   32.115800 H    441 MOH     0.0372 ****
2951 HC3   -21.213408    5.537888   32.590976 H    441 MOH     0.0372 ****
2952 O1    -20.060440    6.376022   31.106758 O    441 MOH    -0.6497 ****
2953 HO1   -19.247530    6.637709   31.545872 H    441 MOH     0.4215 ****
2954 HC1   -14.464761   -1.706886   18.580362 H    442 MOH     0.0372 ****
2955 C1    -15.256885   -2.239242   19.106449 C    442 MOH     0.1166 ****
2956 HC2   -15.229750   -1.981637   20.164988 H    442 MOH     0.0372 ****
2957 HC3   -15.091186   -3.306811   18.964321 H    442 MOH     0.0372 ****
2958 O1    -16.485487   -1.823645   18.550663 O    442 MOH    -0.6497 ****
2959 HO1   -17.180039   -2.182495   19.108571 H    442 MOH     0.4215 ****
2960 HC1   -13.768476    6.184145   17.461012 H    443 MOH     0.0372 ****
2961 C1    -13.230963    6.526666   16.576421 C    443 MOH     0.1166 ****
2962 HC2   -13.558898    5.952668   15.709508 H    443 MOH     0.0372 ****
2963 HC3   -12.171525    6.342137   16.754612 H    443 MOH     0.0372 ****
2964 O1    -13.491348    7.907361   16.307721 O    443 MOH    -0.6497 ****
2965 HO1   -13.232118    8.112302   15.406867 H    443 MOH     0.4215 ****
2966 HC1   -10.399637    4.351927   26.103271 H    444 MOH     0.0372 ****
2967 C1    -10.351140    3.264354   26.052359 C    444 MOH     0.1166 ****
2968 HC2   -10.729304    2.909586   25.094230 H    444 MOH     0.0372 ****
2969 HC3   -10.957935    2.817730   26.840076 H    444 MOH     0.0372 ****
2970 O1     -9.014574    2.829977   26.125898 O    444 MOH    -0.6497 ****
2971 HO1    -9.046906    1.870594   26.147112 H    444 MOH     0.4215 ****
2972 HC1   -19.309884    3.327224   20.529855 H    445 MOH     0.0372 ****
2973 C1    -19.264273    2.872435   19.539906 C    445 MOH     0.1166 ****
2974 HC2   -18.346864    2.293539   19.431011 H    445 MOH     0.0372 ****
2975 HC3   -19.274666    3.650148   18.776938 H    445 MOH     0.0372 ****
2976 O1    -20.367590    2.035934   19.322824 O    445 MOH    -0.6497 ****
2977 HO1   -20.108360    1.148403   19.580211 H    445 MOH     0.4215 ****
2978 HC1   -11.202732   -1.229644   19.025132 H    446 MOH     0.0372 ****
2979 C1    -11.004123   -0.269035   19.499601 C    446 MOH     0.1166 ****
2980 HC2    -9.939489   -0.051847   19.416162 H    446 MOH     0.0372 ****
2981 HC3   -11.233331   -0.304145   20.564504 H    446 MOH     0.0372 ****
2982 O1    -11.797402    0.726682   18.848355 O    446 MOH    -0.6497 ****
2983 HO1   -11.750060    1.502762   19.411919 H    446 MOH     0.4215 ****
2984 HC1   -25.627828   -2.516442   27.470815 H    447 MOH     0.0372 ****
2985 C1    -24.713305   -2.210256   26.963113 C    447 MOH     0.1166 ****
2986 HC2   -24.118057   -1.555834   27.600216 H    447 MOH     0.0372 ****
2987 HC3   -24.988701   -1.664020   26.060844 H    447 MOH     0.0372 ****
2988 O1    -24.011247   -3.349677   26.565012 O    447 MOH    -0.6497 ****
2989 HO1   -23.076517   -3.150860   26.654814 H    447 MOH     0.4215 ****
2990 HC1   -12.361474   -6.696905   24.037105 H    448 MOH     0.0372 ****
2991 C1    -12.314131   -5.973489   24.851692 C    448 MOH     0.1166 ****
2992 HC2   -13.107410   -5.245990   24.680572 H    448 MOH     0.0372 ****
2993 HC3   -11.353420   -5.459912   24.805023 H    448 MOH     0.0372 ****
2994 O1    -12.499460   -6.615255   26.145697 O    448 MOH    -0.6497 ****
2995 HO1   -12.691141   -5.939604   26.801185 H    448 MOH     0.4215 ****
2996 HC1   -28.682011   -2.854064   22.615113 H    449 MOH     0.0372 ****
2997 C1    -28.639287   -2.612381   23.677187 C    449 MOH     0.1166 ****
2998 HC2   -27.602366   -2.674434   24.008113 H    449 MOH     0.0372 ****
2999 HC3   -29.236845   -3.314159   24.259136 H    449 MOH     0.0372 ****
3000 O1    -29.072877   -1.318642   23.946595 O    449 MOH    -0.6497 ****
3001 HO1   -29.842485   -1.127173   23.405658 H    449 MOH     0.4215 ****
3002 HC1    -5.603589    2.017563   28.356113 H    450 MOH     0.0372 ****
3003 C1     -5.521028    2.957351   28.902000 C    450 MOH     0.1166 ****
3004 HC2    -6.347793    3.612998   28.629056 H    450 MOH     0.0372 ****
3005 HC3    -4.563781    3.419488   28.657341 H    450 MOH     0.0372 ****
3006 O1     -5.562020    2.599317   30.243381 O    450 MOH    -0.6497 ****
3007 HO1    -5.338008    3.342329   30.807652 H    450 MOH     0.4215 ****
3008 HC1   -17.696190    6.641792   28.099433 H    451 MOH     0.0372 ****
3009 C1    -18.361875    7.500746   28.184286 C    451 MOH     0.1166 ****
3010 HC2   -19.403992    7.180679   28.177215 H    451 MOH     0.0372 ****
3011 HC3   -18.226775    8.125366   27.301817 H    451 MOH     0.0372 ****
3012 O1    -18.136131    8.297647   29.387782 O    451 MOH    -0.6497 ****
3013 HO1   -18.208877    7.730590   30.157821 H    451 MOH     0.4215 ****
3014 HC1   -25.372639   -0.744645   23.001901 H    452 MOH     0.0372 ****
3015 C1    -25.913039    0.124924   22.628548 C    452 MOH     0.1166 ****
3016 HC2   -26.356444   -0.204532   21.688803 H    452 MOH     0.0372 ****
3017 HC3   -25.190197    0.927949   22.482177 H    452 MOH     0.0372 ****
3018 O1    -26.904350    0.463362   23.622033 O    452 MOH    -0.6497 ****
3019 HO1   -27.540012   -0.250664   23.704765 H    452 MOH     0.4215 ****
3020 HC1   -26.929176   -7.516667   18.692792 H    453 MOH     0.0372 ****
3021 C1    -26.516370   -6.509111   18.656022 C    453 MOH     0.1166 ****
3022 HC2   -26.601818   -6.038400   19.635365 H    453 MOH     0.0372 ****
3023 HC3   -27.093143   -5.921233   17.941844 H    453 MOH     0.0372 ****
3024 O1    -25.176918   -6.564632   18.224687 O    453 MOH    -0.6497 ****
3025 HO1   -25.143431   -7.225178   17.528894 H    453 MOH     0.4215 ****
3026 HC1   -10.815907   -9.359908   24.641681 H    454 MOH     0.0372 ****
3027 C1    -11.496026   -9.928598   25.275956 C    454 MOH     0.1166 ****
3028 HC2   -11.141533   -9.891448   26.306211 H    454 MOH     0.0372 ****
3029 HC3   -11.550874  -10.965141   24.944323 H    454 MOH     0.0372 ****
3030 O1    -12.728668   -9.305611   25.193932 O    454 MOH    -0.6497 ****
3031 HO1   -12.626477   -8.412772   25.529807 H    454 MOH     0.4215 ****
3032 HC1   -20.755569   10.895739   30.833108 H    455 MOH     0.0372 ****
3033 C1    -21.209944   11.193760   29.888413 C    455 MOH     0.1166 ****
3034 HC2   -22.290744   11.059038   29.936497 H    455 MOH     0.0372 ****
3035 HC3   -20.787324   10.569140   29.100696 H    455 MOH     0.0372 ****
3036 O1    -20.928197   12.551186   29.628905 O    455 MOH    -0.6497 ****
3037 HO1   -21.197820   12.745512   28.728051 H    455 MOH     0.4215 ****
3038 HC1   -16.947944   -2.896521   29.625370 H    456 MOH     0.0372 ****
3039 C1    -17.088240   -3.050839   28.556224 C    456 MOH     0.1166 ****
3040 HC2   -17.284539   -2.096355   28.066906 H    456 MOH     0.0372 ****
3041 HC3   -17.922511   -3.729756   28.380155 H    456 MOH     0.0372 ****
3042 O1    -15.912755   -3.605240   28.004681 O    456 MOH    -0.6497 ****
3043 HO1   -15.266123   -3.706078   28.706838 H    456 MOH     0.4215 ****
3044 HC1   -14.184746    5.139846   30.915840 H    457 MOH     0.0372 ****
3045 C1    -13.702081    4.173931   30.768761 C    457 MOH     0.1166 ****
3046 HC2   -14.475153    3.419896   30.620976 H    457 MOH     0.0372 ****
3047 HC3   -13.137432    3.931431   31.668201 H    457 MOH     0.0372 ****
3048 O1    -12.793909    4.201692   29.645876 O    457 MOH    -0.6497 ****
3049 HO1   -12.082614    4.805899   29.874979 H    457 MOH     0.4215 ****
3050 HC1   -19.491749   -3.102687   22.256610 H    458 MOH     0.0372 ****
3051 C1    -19.652830   -4.115551   22.625013 C    458 MOH     0.1166 ****
3052 HC2   -20.403963   -4.070644   23.412730 H    458 MOH     0.0372 ****
3053 HC3   -18.727915   -4.516042   23.040084 H    458 MOH     0.0372 ****
3054 O1    -20.104318   -4.962258   21.568595 O    458 MOH    -0.6497 ****
3055 HO1   -19.699596   -5.820396   21.718502 H    458 MOH     0.4215 ****
3056 HC1   -15.690475    9.941254   22.043771 H    459 MOH     0.0372 ****
3057 C1    -16.271290   10.322558   22.883814 C    459 MOH     0.1166 ****
3058 HC2   -15.973954   11.329707   23.175849 H    459 MOH     0.0372 ****
3059 HC3   -16.063444    9.667320   23.730221 H    459 MOH     0.0372 ****
3060 O1    -17.650579   10.278876   22.598850 O    459 MOH    -0.6497 ****
3061 HO1   -18.055879    9.604041   23.148272 H    459 MOH     0.4215 ****
3062 HC1   -10.892695   -2.847532   28.689161 H    460 MOH     0.0372 ****
3063 C1    -10.909438   -3.854680   28.271260 C    460 MOH     0.1166 ****
3064 HC2   -10.407720   -4.513185   28.979074 H    460 MOH     0.0372 ****
3065 HC3   -10.358068   -3.883258   27.330808 H    460 MOH     0.0372 ****
3066 O1    -12.252354   -4.290281   28.122061 O    460 MOH    -0.6497 ****
3067 HO1   -12.744257   -4.029410   28.904828 H    460 MOH     0.4215 ****
3068 HC1   -16.757996    0.943462   27.820833 H    461 MOH     0.0372 ****
3069 C1    -17.821475    1.144320   27.689311 C    461 MOH     0.1166 ****
3070 HC2   -18.403444    0.223312   27.716181 H    461 MOH     0.0372 ****
3071 HC3   -17.986597    1.615030   26.719868 H    461 MOH     0.0372 ****
3072 O1    -18.271808    2.034710   28.668654 O    461 MOH    -0.6497 ****
3073 HO1   -18.161534    2.929182   28.338435 H    461 MOH     0.4215 ****
3074 HC1   -13.045056    3.871010   25.024226 H    462 MOH     0.0372 ****
3075 C1    -13.449202    4.216797   24.073167 C    462 MOH     0.1166 ****
3076 HC2   -14.382200    3.693422   23.861035 H    462 MOH     0.0372 ****
3077 HC3   -12.728091    4.071869   23.269187 H    462 MOH     0.0372 ****
3078 O1    -13.695730    5.582796   24.227317 O    462 MOH    -0.6497 ****
3079 HO1   -12.871274    6.038401   24.415407 H    462 MOH     0.4215 ****
3080 HC1   -17.847456    4.542987   22.560666 H    463 MOH     0.0372 ****
3081 C1    -18.084747    4.256397   23.585971 C    463 MOH     0.1166 ****
3082 HC2   -17.322644    3.593810   23.995386 H    463 MOH     0.0372 ****
3083 HC3   -19.037952    3.727715   23.566879 H    463 MOH     0.0372 ****
3084 O1    -18.186361    5.382754   24.423892 O    463 MOH    -0.6497 ****
3085 HO1   -17.412711    5.939196   24.304391 H    463 MOH     0.4215 ****
3086 HC1   -10.805515    5.758342   23.357575 H    464 MOH     0.0372 ****
3087 C1    -10.385204    6.641792   23.838408 C    464 MOH     0.1166 ****
3088 HC2   -10.131747    7.383579   23.081097 H    464 MOH     0.0372 ****
3089 HC3    -9.498394    6.358876   24.404800 H    464 MOH     0.0372 ****
3090 O1    -11.390370    7.138222   24.661480 O    464 MOH    -0.6497 ****
3091 HO1   -11.034145    7.334589   25.530514 H    464 MOH     0.4215 ****
3092 HC1   -22.140633    3.796709   24.547636 H    465 MOH     0.0372 ****
3093 C1    -22.723179    2.923874   24.843207 C    465 MOH     0.1166 ****
3094 HC2   -22.387161    2.008990   24.356010 H    465 MOH     0.0372 ****
3095 HC3   -23.743357    3.103912   24.505917 H    465 MOH     0.0372 ****
3096 O1    -22.730107    2.776905   26.246106 O    465 MOH    -0.6497 ****
3097 HO1   -22.916591    3.638717   26.627237 H    465 MOH     0.4215 ****
3098 HC1   -22.971440    0.782204   28.818561 H    466 MOH     0.0372 ****
3099 C1    -21.939715    0.498471   28.612793 C    466 MOH     0.1166 ****
3100 HC2   -21.668937   -0.327415   29.269695 H    466 MOH     0.0372 ****
3101 HC3   -21.291350    1.349261   28.823511 H    466 MOH     0.0372 ****
3102 O1    -21.801728    0.179221   27.250905 O    466 MOH    -0.6497 ****
3103 HO1   -22.098486    0.972039   26.798357 H    466 MOH     0.4215 ****
3104 HC1   -17.477374    0.054705   23.132008 H    467 MOH     0.0372 ****
3105 C1    -17.462941    0.762200   22.302572 C    467 MOH     0.1166 ****
3106 HC2   -18.453674    1.193310   22.161151 H    467 MOH     0.0372 ****
3107 HC3   -17.124036    0.269036   21.391818 H    467 MOH     0.0372 ****
3108 O1    -16.585946    1.813847   22.609456 O    467 MOH    -0.6497 ****
3109 HO1   -16.389646    1.820788   23.549201 H    467 MOH     0.4215 ****
3110 HC1   -23.681003    4.536863   30.015693 H    468 MOH     0.0372 ****
3111 C1    -23.920603    3.904079   30.869878 C    468 MOH     0.1166 ****
3112 HC2   -24.966185    4.028594   31.150599 H    468 MOH     0.0372 ****
3113 HC3   -23.288405    4.211490   31.703557 H    468 MOH     0.0372 ****
3114 O1    -23.618649    2.554002   30.553801 O    468 MOH    -0.6497 ****
3115 HO1   -24.081107    2.280883   29.758306 H    468 MOH     0.4215 ****
3116 HC1   -26.274460   -3.401525   20.915936 H    469 MOH     0.0372 ****
3117 C1    -25.486377   -3.367232   20.163574 C    469 MOH     0.1166 ****
3118 HC2   -25.906688   -2.975722   19.236557 H    469 MOH     0.0372 ****
3119 HC3   -25.088583   -4.364991   19.976898 H    469 MOH     0.0372 ****
3120 O1    -24.480056   -2.467044   20.513592 O    469 MOH    -0.6497 ****
3121 HO1   -23.652713   -2.932039   20.370049 H    469 MOH     0.4215 ****
3122 HC1   -23.070744   -4.022062   18.197817 H    470 MOH     0.0372 ****
3123 C1    -22.640618   -4.591977   19.022304 C    470 MOH     0.1166 ****
3124 HC2   -21.865236   -5.235784   18.607232 H    470 MOH     0.0372 ****
3125 HC3   -23.385977   -5.240683   19.482630 H    470 MOH     0.0372 ****
3126 O1    -22.071350   -3.697505   19.962049 O    470 MOH    -0.6497 ****
3127 HO1   -21.656813   -4.236801   20.638750 H    470 MOH     0.4215 ****
3128 HC1   -12.723472    4.693222   20.483186 H    471 MOH     0.0372 ****
3129 C1    -11.979845    4.172298   19.880731 C    471 MOH     0.1166 ****
3130 HC2   -11.064168    4.761808   19.832648 H    471 MOH     0.0372 ****
3131 HC3   -12.315863    4.051048   18.850477 H    471 MOH     0.0372 ****
3132 O1    -11.641518    2.943470   20.464801 O    471 MOH    -0.6497 ****
3133 HO1   -12.345308    2.671985   21.058064 H    471 MOH     0.4215 ****
3134 HC1   -12.007558   -0.983878   25.143020 H    472 MOH     0.0372 ****
3135 C1    -12.046818   -2.053489   24.937959 C    472 MOH     0.1166 ****
3136 HC2   -12.825086   -2.481741   25.569405 H    472 MOH     0.0372 ****
3137 HC3   -11.078024   -2.489906   25.181911 H    472 MOH     0.0372 ****
3138 O1    -12.335493   -2.345386   23.569707 O    472 MOH    -0.6497 ****
3139 HO1   -11.905944   -3.159842   23.297471 H    472 MOH     0.4215 ****
3140 HC1    -7.846017   -2.303745   22.896542 H    473 MOH     0.0372 ****
3141 C1     -8.368519   -1.374572   23.124230 C    473 MOH     0.1166 ****
3142 HC2    -9.400821   -1.587677   23.402830 H    473 MOH     0.0372 ****
3143 HC3    -8.328105   -0.728315   22.248125 H    473 MOH     0.0372 ****
3144 O1     -7.680895   -0.811189   24.190547 O    473 MOH    -0.6497 ****
3145 HO1    -7.218437   -1.526440   24.633196 H    473 MOH     0.4215 ****
3146 HC1   -12.972888   -0.159217   22.515411 H    474 MOH     0.0372 ****
3147 C1    -13.909927    0.096755   22.022558 C    474 MOH     0.1166 ****
3148 HC2   -14.748240   -0.235151   22.635619 H    474 MOH     0.0372 ****
3149 HC3   -13.928402   -0.402124   21.053821 H    474 MOH     0.0372 ****
3150 O1    -13.940527    1.480308   21.805476 O    474 MOH    -0.6497 ****
3151 HO1   -14.856781    1.721583   21.653448 H    474 MOH     0.4215 ****
3152 HC1   -16.302467   -4.869177   20.807748 H    475 MOH     0.0372 ****
3153 C1    -15.997048   -5.849381   20.440760 C    475 MOH     0.1166 ****
3154 HC2   -15.047884   -5.769773   19.911137 H    475 MOH     0.0372 ****
3155 HC3   -16.763769   -6.241708   19.773958 H    475 MOH     0.0372 ****
3156 O1    -15.843473   -6.769981   21.514855 O    475 MOH    -0.6497 ****
3157 HO1   -14.994191   -7.203949   21.406668 H    475 MOH     0.4215 ****
3158 HC1   -10.461414   -7.517484   27.480715 H    476 MOH     0.0372 ****
3159 C1     -9.590192   -7.014114   27.061401 C    476 MOH     0.1166 ****
3160 HC2    -9.888105   -6.064936   26.618045 H    476 MOH     0.0372 ****
3161 HC3    -9.151406   -7.625670   26.272270 H    476 MOH     0.0372 ****
3162 O1     -8.621399   -6.738954   28.047108 O    476 MOH    -0.6497 ****
3163 HO1    -8.191273   -7.577088   28.230248 H    476 MOH     0.4215 ****
3164 HC1   -19.016590   -1.193718   15.732843 H    477 MOH     0.0372 ****
3165 C1    -18.092830   -1.005515   15.184835 C    477 MOH     0.1166 ****
3166 HC2   -17.502200   -1.920400   15.222312 H    477 MOH     0.0372 ****
3167 HC3   -17.570328   -0.182079   15.672032 H    477 MOH     0.0372 ****
3168 O1    -18.365916   -0.653197   13.830726 O    477 MOH    -0.6497 ****
3169 HO1   -17.584184   -0.231068   13.467273 H    477 MOH     0.4215 ****
3170 HC1   -14.908743    8.062087   25.753960 H    478 MOH     0.0372 ****
3171 C1    -15.923725    7.678742   25.650015 C    478 MOH     0.1166 ****
3172 HC2   -16.644835    8.496055   25.671229 H    478 MOH     0.0372 ****
3173 HC3   -16.158706    6.983904   26.456117 H    478 MOH     0.0372 ****
3174 O1    -16.051319    6.966757   24.467733 O    478 MOH    -0.6497 ****
3175 HO1   -15.330786    6.333564   24.435913 H    478 MOH     0.4215 ****
3176 HC1   -21.429914   -5.931847   26.643501 H    479 MOH     0.0372 ****
3177 C1    -20.573127   -6.189860   26.019832 C    479 MOH     0.1166 ****
3178 HC2   -20.387220   -5.396634   25.296462 H    479 MOH     0.0372 ****
3179 HC3   -20.819078   -7.093722   25.462632 H    479 MOH     0.0372 ****
3180 O1    -19.409766   -6.380512   26.820984 O    479 MOH    -0.6497 ****
3181 HO1   -18.713481   -6.728340   26.259542 H    479 MOH     0.4215 ****
3182 HC1   -15.375242   -6.271918   25.826792 H    480 MOH     0.0372 ****
3183 C1    -15.873495   -7.047590   25.246965 C    480 MOH     0.1166 ****
3184 HC2   -15.146611   -7.793051   24.924524 H    480 MOH     0.0372 ****
3185 HC3   -16.335953   -6.573614   24.380759 H    480 MOH     0.0372 ****
3186 O1    -16.848640   -7.678334   26.043874 O    480 MOH    -0.6497 ****
3187 HO1   -16.376945   -8.047390   26.793407 H    480 MOH     0.4215 ****
3188 HC1   -12.034693   -0.220046   33.013826 H    481 MOH     0.0372 ****
3189 C1    -12.657077    0.674426   33.004633 C    481 MOH     0.1166 ****
3190 HC2   -12.213095    1.461529   33.614159 H    481 MOH     0.0372 ****
3191 HC3   -13.628758    0.396409   33.414048 H    481 MOH     0.0372 ****
3192 O1    -12.836633    1.127174   31.683051 O    481 MOH    -0.6497 ****
3193 HO1   -11.979268    1.402741   31.350003 H    481 MOH     0.4215 ****
3194 HC1   -16.050742    5.426845   21.533240 H    482 MOH     0.0372 ****
3195 C1    -15.457803    5.088407   20.684005 C    482 MOH     0.1166 ****
3196 HC2   -15.090608    4.092689   20.932199 H    482 MOH     0.0372 ****
3197 HC3   -14.610830    5.758342   20.531977 H    482 MOH     0.0372 ****
3198 O1    -16.262052    5.037376   19.513743 O    482 MOH    -0.6497 ****
3199 HO1   -15.855020    4.387036   18.936037 H    482 MOH     0.4215 ****
3200 HC1   -20.294266    5.747728   27.195751 H    483 MOH     0.0372 ****
3201 C1    -20.112978    4.709552   27.475058 C    483 MOH     0.1166 ****
3202 HC2   -20.772312    4.072277   26.886038 H    483 MOH     0.0372 ****
3203 HC3   -20.337568    4.554826   28.530768 H    483 MOH     0.0372 ****
3204 O1    -18.782763    4.313960   27.233935 O    483 MOH    -0.6497 ****
3205 HO1   -18.603207    4.422146   26.297018 H    483 MOH     0.4215 ****
3206 HC1   -16.405812   -0.040416   30.854321 H    484 MOH     0.0372 ****
3207 C1    -15.952015    0.838950   31.311112 C    484 MOH     0.1166 ****
3208 HC2   -15.114857    1.155751   30.688858 H    484 MOH     0.0372 ****
3209 HC3   -15.648329    0.589919   32.327932 H    484 MOH     0.0372 ****
3210 O1    -16.902334    1.836709   31.275757 O    484 MOH    -0.6497 ****
3211 HO1   -17.230269    1.892231   30.374903 H    484 MOH     0.4215 ****
3212 HC1    -9.042864    3.278642   36.231161 H    485 MOH     0.0372 ****
3213 C1     -9.295744    4.143312   36.844930 C    485 MOH     0.1166 ****
3214 HC2    -8.488031    4.326616   37.552744 H    485 MOH     0.0372 ****
3215 HC3   -10.213731    3.910611   37.383745 H    485 MOH     0.0372 ****
3216 O1     -9.488001    5.251706   35.988624 O    485 MOH    -0.6497 ****
3217 HO1   -10.173316    4.980629   35.373441 H    485 MOH     0.4215 ****
3218 HC1   -12.783517   -3.980829   32.697042 H    486 MOH     0.0372 ****
3219 C1    -11.960793   -4.671585   32.511780 C    486 MOH     0.1166 ****
3220 HC2   -11.685397   -4.550335   31.464555 H    486 MOH     0.0372 ****
3221 HC3   -12.269098   -5.711393   32.618553 H    486 MOH     0.0372 ****
3222 O1    -10.870755   -4.360908   33.396370 O    486 MOH    -0.6497 ****
3223 HO1   -10.259919   -5.101470   33.409098 H    486 MOH     0.4215 ****
3224 HC1   -17.036279   -2.639325   23.501825 H    487 MOH     0.0372 ****
3225 C1    -16.109054   -2.816097   24.045590 C    487 MOH     0.1166 ****
3226 HC2   -16.174872   -3.740779   24.619054 H    487 MOH     0.0372 ****
3227 HC3   -15.885620   -1.979596   24.708149 H    487 MOH     0.0372 ****
3228 O1    -15.105619   -2.918159   23.115038 O    487 MOH    -0.6497 ****
3229 HO1   -14.295597   -2.577271   23.501825 H    487 MOH     0.4215 ****
3230 HC1   -19.133215   -2.495213   18.228930 H    488 MOH     0.0372 ****
3231 C1    -18.853200   -3.403566   18.762795 C    488 MOH     0.1166 ****
3232 HC2   -18.044910   -3.899179   18.225394 H    488 MOH     0.0372 ****
3233 HC3   -19.684007   -4.109427   18.786130 H    488 MOH     0.0372 ****
3234 O1    -18.415569   -3.142287   20.082257 O    488 MOH    -0.6497 ****
3235 HO1   -18.763133   -3.846924   20.633800 H    488 MOH     0.4215 ****
3236 HC1    -7.949363   -3.023078   31.632139 H    489 MOH     0.0372 ****
3237 C1     -8.780747   -2.339671   31.462433 C    489 MOH     0.1166 ****
3238 HC2    -9.702776   -2.799767   31.819522 H    489 MOH     0.0372 ****
3239 HC3    -8.851184   -2.151468   30.391167 H    489 MOH     0.0372 ****
3240 O1     -8.452812   -1.119008   32.114386 O    489 MOH    -0.6497 ****
3241 HO1    -7.839666   -1.316192   32.826442 H    489 MOH     0.4215 ****
3242 HC1    -8.189541   -0.196775   27.654663 H    490 MOH     0.0372 ****
3243 C1     -9.199326   -0.517659   27.398691 C    490 MOH     0.1166 ****
3244 HC2    -9.896765   -0.086957   28.117818 H    490 MOH     0.0372 ****
3245 HC3    -9.280733   -1.604007   27.433339 H    490 MOH     0.0372 ****
3246 O1     -9.554397   -0.058379   26.126606 O    490 MOH    -0.6497 ****
3247 HO1    -8.955684   -0.465811   25.497280 H    490 MOH     0.4215 ****
3248 HC1   -12.386300    6.911644   28.928870 H    491 MOH     0.0372 ****
3249 C1    -12.878780    7.348061   28.059835 C    491 MOH     0.1166 ****
3250 HC2   -13.821015    7.835510   28.310151 H    491 MOH     0.0372 ****
3251 HC3   -13.131082    6.513602   27.405055 H    491 MOH     0.0372 ****
3252 O1    -12.041044    8.273152   27.359800 O    491 MOH    -0.6497 ****
3253 HO1   -12.582021    8.972889   26.987861 H    491 MOH     0.4215 ****
3254 HC1   -14.478617  -13.305220   25.406771 H    492 MOH     0.0372 ****
3255 C1    -14.511526  -12.220096   25.307776 C    492 MOH     0.1166 ****
3256 HC2   -14.066389  -11.751019   26.185295 H    492 MOH     0.0372 ****
3257 HC3   -15.549024  -11.894314   25.232823 H    492 MOH     0.0372 ****
3258 O1    -13.825634  -11.842874   24.142464 O    492 MOH    -0.6497 ****
3259 HO1   -13.724020  -10.889615   24.182769 H    492 MOH     0.4215 ****
3260 HC1    -6.045262   -4.488282   26.589761 H    493 MOH     0.0372 ****
3261 C1     -6.951124   -4.163724   26.078522 C    493 MOH     0.1166 ****
3262 HC2    -7.836780   -4.556459   26.577740 H    493 MOH     0.0372 ****
3263 HC3    -6.943619   -4.511960   25.045439 H    493 MOH     0.0372 ****
3264 O1     -7.044078   -2.771597   26.092664 O    493 MOH    -0.6497 ****
3265 HO1    -6.773878   -2.486232   26.968770 H    493 MOH     0.4215 ****
3266 HC1   -13.510978    0.075526   28.574609 H    494 MOH     0.0372 ****
3267 C1    -12.847603   -0.746278   28.844017 C    494 MOH     0.1166 ****
3268 HC2   -11.831466   -0.360075   28.921799 H    494 MOH     0.0372 ****
3269 HC3   -12.861459   -1.528890   28.085291 H    494 MOH     0.0372 ****
3270 O1    -13.225767   -1.173305   30.130951 O    494 MOH    -0.6497 ****
3271 HO1   -13.172073   -0.404166   30.702293 H    494 MOH     0.4215 ****
3272 HC1    -9.731066    6.274776   32.677950 H    495 MOH     0.0372 ****
3273 C1    -10.070548    5.528907   31.958822 C    495 MOH     0.1166 ****
3274 HC2   -10.576884    4.691590   32.440362 H    495 MOH     0.0372 ****
3275 HC3    -9.183738    5.132089   31.463847 H    495 MOH     0.0372 ****
3276 O1    -10.911747    6.149444   31.004228 O    495 MOH    -0.6497 ****
3277 HO1   -10.382317    6.834485   30.588449 H    495 MOH     0.4215 ****
3278 HC1   -19.024673   -0.961425   23.696987 H    496 MOH     0.0372 ****
3279 C1    -19.655140   -1.274959   24.528544 C    496 MOH     0.1166 ****
3280 HC2   -20.631439   -1.587677   24.158020 H    496 MOH     0.0372 ****
3281 HC3   -19.825458   -0.447848   25.218680 H    496 MOH     0.0372 ****
3282 O1    -19.052963   -2.329056   25.224337 O    496 MOH    -0.6497 ****
3283 HO1   -19.703637   -2.683416   25.833863 H    496 MOH     0.4215 ****
3284 HC1   -16.362511    3.770990   26.840783 H    497 MOH     0.0372 ****
3285 C1    -15.706064    4.046557   27.665977 C    497 MOH     0.1166 ****
3286 HC2   -16.252814    4.010631   28.609257 H    497 MOH     0.0372 ****
3287 HC3   -15.359654    5.069219   27.515363 H    497 MOH     0.0372 ****
3288 O1    -14.587159    3.174539   27.731031 O    497 MOH    -0.6497 ****
3289 HO1   -13.982096    3.501138   28.401368 H    497 MOH     0.4215 ****
3290 HC1   -12.586063    8.485849   34.608351 H    498 MOH     0.0372 ****
3291 C1    -12.897832    8.066986   35.565774 C    498 MOH     0.1166 ****
3292 HC2   -13.424953    8.813264   36.158329 H    498 MOH     0.0372 ****
3293 HC3   -12.005249    7.733448   36.093983 H    498 MOH     0.0372 ****
3294 O1    -13.712473    6.952877   35.338793 O    498 MOH    -0.6497 ****
3295 HO1   -14.398365    7.194152   34.713003 H    498 MOH     0.4215 ****
3296 HC1   -19.906287   13.880034   26.888866 H    499 MOH     0.0372 ****
3297 C1    -20.813882   14.259705   26.419348 C    499 MOH     0.1166 ****
3298 HC2   -20.683400   14.239701   25.336767 H    499 MOH     0.0372 ****
3299 HC3   -20.957064   15.290532   26.741081 H    499 MOH     0.0372 ****
3300 O1    -21.954148   13.466478   26.793407 O    499 MOH    -0.6497 ****
3301 HO1   -22.727220   13.971481   26.531070 H    499 MOH     0.4215 ****
3302 HC1   -17.748729    5.410107   33.400613 H    500 MOH     0.0372 ****
3303 C1    -17.166760    5.652606   32.511073 C    500 MOH     0.1166 ****
3304 HC2   -17.203133    4.830802   31.796188 H    500 MOH     0.0372 ****
3305 HC3   -16.139654    5.795901   32.848362 H    500 MOH     0.0372 ****
3306 O1    -17.632682    6.896947   31.979328 O    500 MOH    -0.6497 ****
3307 HO1   -17.216989    7.574231   32.517436 H    500 MOH     0.4215 ****
3308 HC1   -20.254429    0.843849   31.072110 H    501 MOH     0.0372 ****
3309 C1    -20.091616    0.619721   32.126406 C    501 MOH     0.1166 ****
3310 HC2   -19.524081   -0.307002   32.218330 H    501 MOH     0.0372 ****
3311 HC3   -21.075421    0.502146   32.580369 H    501 MOH     0.0372 ****
3312 O1    -19.398796    1.696272   32.718255 O    501 MOH    -0.6497 ****
3313 HO1   -18.560484    1.786903   32.260050 H    501 MOH     0.4215 ****
3314 HC1   -20.532135    0.738930   21.736179 H    502 MOH     0.0372 ****
3315 C1    -20.665503   -0.283732   21.383333 C    502 MOH     0.1166 ****
3316 HC2   -21.664318   -0.361300   20.954826 H    502 MOH     0.0372 ****
3317 HC3   -20.592179   -1.000616   22.200749 H    502 MOH     0.0372 ****
3318 O1    -19.745206   -0.560933   20.371463 O    502 MOH    -0.6497 ****
3319 HO1   -19.629159   -1.508886   20.279539 H    502 MOH     0.4215 ****
3320 HC1   -18.345132   -8.535655   20.693904 H    503 MOH     0.0372 ****
3321 C1    -19.081831   -8.189869   21.418689 C    503 MOH     0.1166 ****
3322 HC2   -19.352608   -8.997792   22.099632 H    503 MOH     0.0372 ****
3323 HC3   -19.990580   -7.890215   20.898258 H    503 MOH     0.0372 ****
3324 O1    -18.641890   -7.108419   22.212769 O    503 MOH    -0.6497 ****
3325 HO1   -17.694458   -7.177005   22.348534 H    503 MOH     0.4215 ****
3326 HC1   -17.396545    8.019630   21.046043 H    504 MOH     0.0372 ****
3327 C1    -18.244096    7.355001   21.215749 C    504 MOH     0.1166 ****
3328 HC2   -19.109544    7.998809   21.372019 H    504 MOH     0.0372 ****
3329 HC3   -18.011423    6.753243   22.093975 H    504 MOH     0.0372 ****
3330 O1    -18.377463    6.653223   20.000232 O    504 MOH    -0.6497 ****
3331 HO1   -17.531645    6.247424   19.795171 H    504 MOH     0.4215 ****
3332 HC1   -19.507915  -10.786328   26.456117 H    505 MOH     0.0372 ****
3333 C1    -18.472726  -10.482183   26.299847 C    505 MOH     0.1166 ****
3334 HC2   -17.883829  -11.384820   26.132262 H    505 MOH     0.0372 ****
3335 HC3   -18.099758   -9.925332   27.158274 H    505 MOH     0.0372 ****
3336 O1    -18.475036   -9.750602   25.123221 O    505 MOH    -0.6497 ****
3337 HO1   -17.837641   -9.041475   25.232823 H    505 MOH     0.4215 ****
3338 HC1    -6.445365   -5.594226   31.026856 H    506 MOH     0.0372 ****
3339 C1     -6.061428   -4.997367   30.199541 C    506 MOH     0.1166 ****
3340 HC2    -5.373803   -5.614639   29.621127 H    506 MOH     0.0372 ****
3341 HC3    -5.560288   -4.135555   30.641482 H    506 MOH     0.0372 ****
3342 O1     -7.126639   -4.557684   29.412531 O    506 MOH    -0.6497 ****
3343 HO1    -7.656069   -5.313760   29.150901 H    506 MOH     0.4215 ****
3344 HC1   -28.030183    2.709544   27.144839 H    507 MOH     0.0372 ****
3345 C1    -28.196459    3.779971   27.263633 C    507 MOH     0.1166 ****
3346 HC2   -27.843121    4.100854   28.243683 H    507 MOH     0.0372 ****
3347 HC3   -29.263403    3.993077   27.191508 H    507 MOH     0.0372 ****
3348 O1    -27.509413    4.494406   26.253885 O    507 MOH    -0.6497 ****
3349 HO1   -27.600057    3.964499   25.459097 H    507 MOH     0.4215 ****
3350 HC1   -21.366983    9.025553   24.295906 H    508 MOH     0.0372 ****
3351 C1    -20.495762    8.370315   24.276814 C    508 MOH     0.1166 ****
3352 HC2   -20.496339    7.798767   23.349090 H    508 MOH     0.0372 ****
3353 HC3   -20.523474    7.661188   25.104836 H    508 MOH     0.0372 ****
3354 O1    -19.317390    9.154968   24.350353 O    508 MOH    -0.6497 ****
3355 HO1   -19.346835    9.665687   25.162819 H    508 MOH     0.4215 ****
3356 HC1    -6.553330   -0.137579   29.762549 H    509 MOH     0.0372 ****
3357 C1     -5.913049   -1.012864   29.871443 C    509 MOH     0.1166 ****
3358 HC2    -6.063160   -1.413764   30.874120 H    509 MOH     0.0372 ****
3359 HC3    -4.874395   -0.700146   29.765377 H    509 MOH     0.0372 ****
3360 O1     -6.292368   -1.954693   28.868059 O    509 MOH    -0.6497 ****
3361 HO1    -6.363382   -2.827936   29.260503 H    509 MOH     0.4215 ****
3362 HC1   -25.552195    2.260471   26.820984 H    510 MOH     0.0372 ****
3363 C1    -25.284882    1.255772   27.149789 C    510 MOH     0.1166 ****
3364 HC2   -24.340337    0.966324   26.689462 H    510 MOH     0.0372 ****
3365 HC3   -26.047562    0.542154   26.840076 H    510 MOH     0.0372 ****
3366 O1    -25.117451    1.263529   28.578852 O    510 MOH    -0.6497 ****
3367 HO1   -25.945948    1.451323   29.025743 H    510 MOH     0.4215 ****
3368 HC1    -8.417594    2.075943   34.183380 H    511 MOH     0.0372 ****
3369 C1     -7.559074    2.437651   33.617695 C    511 MOH     0.1166 ****
3370 HC2    -7.907216    2.956943   32.725326 H    511 MOH     0.0372 ****
3371 HC3    -6.929762    1.597068   33.324245 H    511 MOH     0.0372 ****
3372 O1     -6.809674    3.327224   34.413190 O    511 MOH    -0.6497 ****
3373 HO1    -6.642242    2.908769   35.261011 H    511 MOH     0.4215 ****
3374 HC1    -7.618541    3.397034   24.251358 H    512 MOH     0.0372 ****
3375 C1     -8.065410    3.810998   23.347676 C    512 MOH     0.1166 ****
3376 HC2    -9.093094    4.129840   23.519503 H    512 MOH     0.0372 ****
3377 HC3    -8.034811    3.038592   22.578344 H    512 MOH     0.0372 ****
3378 O1     -7.254810    4.875301   22.959474 O    512 MOH    -0.6497 ****
3379 HO1    -7.072945    5.421537   23.727392 H    512 MOH     0.4215 ****
3380 HC1   -14.392592    1.144728   18.845527 H    513 MOH     0.0372 ****
3381 C1    -15.316930    1.659938   18.583897 C    513 MOH     0.1166 ****
3382 HC2   -16.029957    1.612989   19.407677 H    513 MOH     0.0372 ****
3383 HC3   -15.752829    1.213722   17.690822 H    513 MOH     0.0372 ****
3384 O1    -15.079061    3.009198   18.304590 O    513 MOH    -0.6497 ****
3385 HO1   -14.574457    3.039409   17.488589 H    513 MOH     0.4215 ****
3386 HC1   -24.133068   -9.074951   19.385049 H    514 MOH     0.0372 ****
3387 C1    -23.619226   -8.765907   20.295096 C    514 MOH     0.1166 ****
3388 HC2   -22.536117   -8.792035   20.179130 H    514 MOH     0.0372 ****
3389 HC3   -23.922335   -9.405224   21.125239 H    514 MOH     0.0372 ****
3390 O1    -24.058590   -7.508502   20.577939 O    514 MOH    -0.6497 ****
3391 HO1   -24.390566   -7.146386   19.752745 H    514 MOH     0.4215 ****
3392 HC1   -22.672949    9.751827   25.822549 H    515 MOH     0.0372 ****
3393 C1    -22.106569   10.056789   26.702897 C    515 MOH     0.1166 ****
3394 HC2   -21.720899    9.163133   27.194337 H    515 MOH     0.0372 ****
3395 HC3   -22.760707   10.580571   27.399398 H    515 MOH     0.0372 ****
3396 O1    -21.011913   10.871244   26.297725 O    515 MOH    -0.6497 ****
3397 HO1   -21.362942   11.746528   26.120948 H    515 MOH     0.4215 ****
3398 HC1   -30.756431    0.347011   25.219387 H    516 MOH     0.0372 ****
3399 C1    -30.197556    0.979388   25.908816 C    516 MOH     0.1166 ****
3400 HC2   -30.152522    1.980004   25.478188 H    516 MOH     0.0372 ****
3401 HC3   -29.184306    0.585020   25.989427 H    516 MOH     0.0372 ****
3402 O1    -30.862663    0.991635   27.197165 O    516 MOH    -0.6497 ****
3403 HO1   -30.395587    0.373547   27.762850 H    516 MOH     0.4215 ****
3404 HC1   -22.281506   -5.866120   23.118573 H    517 MOH     0.0372 ****
3405 C1    -23.163697   -5.282733   23.379496 C    517 MOH     0.1166 ****
3406 HC2   -22.859434   -4.284157   23.690623 H    517 MOH     0.0372 ****
3407 HC3   -23.698901   -5.772631   24.192668 H    517 MOH     0.0372 ****
3408 O1    -23.984689   -5.227619   22.212062 O    517 MOH    -0.6497 ****
3409 HO1   -24.075333   -6.116376   21.859216 H    517 MOH     0.4215 ****
3410 HC1   -20.551187   -4.003283   28.184993 H    518 MOH     0.0372 ****
3411 C1    -20.862956   -2.959800   28.149638 C    518 MOH     0.1166 ****
3412 HC2   -20.056975   -2.302520   28.477735 H    518 MOH     0.0372 ****
3413 HC3   -21.705888   -2.836509   28.828460 H    518 MOH     0.0372 ****
3414 O1    -21.316176   -2.613605   26.855633 O    518 MOH    -0.6497 ****
3415 HO1   -21.527487   -1.677900   26.885331 H    518 MOH     0.4215 ****
3416 HC1   -13.855079    4.010223   35.682446 H    519 MOH     0.0372 ****
3417 C1    -12.929586    4.309877   36.176007 C    519 MOH     0.1166 ****
3418 HC2   -12.485604    3.455822   36.687952 H    519 MOH     0.0372 ****
3419 HC3   -13.175538    5.061871   36.925540 H    519 MOH     0.0372 ****
3420 O1    -12.047395    4.809165   35.149995 O    519 MOH    -0.6497 ****
3421 HO1   -12.237921    5.747320   35.075042 H    519 MOH     0.4215 ****
3422 HC1   -15.438173    7.879192   31.030391 H    520 MOH     0.0372 ****
3423 C1    -14.492474    8.222121   31.450412 C    520 MOH     0.1166 ****
3424 HC2   -14.606212    9.196609   31.926295 H    520 MOH     0.0372 ****
3425 HC3   -13.762703    8.335614   30.648553 H    520 MOH     0.0372 ****
3426 O1    -14.050801    7.299888   32.422684 O    520 MOH    -0.6497 ****
3427 HO1   -13.219416    6.911644   32.140549 H    520 MOH     0.4215 ****
3428 HC1   -15.520157   -0.186569   26.101150 H    521 MOH     0.0372 ****
3429 C1    -14.738425    0.486632   25.749718 C    521 MOH     0.1166 ****
3430 HC2   -14.178972    0.051848   24.921696 H    521 MOH     0.0372 ****
3431 HC3   -14.053110    0.691573   26.571376 H    521 MOH     0.0372 ****
3432 O1    -15.312311    1.686066   25.304240 O    521 MOH    -0.6497 ****
3433 HO1   -15.117166    2.329465   25.990134 H    521 MOH     0.4215 ****
3434 HC1   -10.620301   22.554330   26.372679 H    522 MOH     0.0372 ****
3435 C1    -11.656644   22.693135   26.679563 C    522 MOH     0.1166 ****
3436 HC2   -12.220138   23.057292   25.821135 H    522 MOH     0.0372 ****
3437 HC3   -11.726504   23.443087   27.467987 H    522 MOH     0.0372 ****
3438 O1    -12.182033   21.450427   27.096756 O    522 MOH    -0.6497 ****
3439 HO1   -12.944713   21.602703   27.658906 H    522 MOH     0.4215 ****
3440 HC1   -16.121871   12.013359   30.463998 H    523 MOH     0.0372 ****
3441 C1    -16.922656   11.619400   31.089788 C    523 MOH     0.1166 ****
3442 HC2   -17.488460   10.889044   30.510667 H    523 MOH     0.0372 ****
3443 HC3   -17.595269   12.396296   31.451119 H    523 MOH     0.0372 ****
3444 O1    -16.425558   10.878429   32.134185 O    523 MOH    -0.6497 ****
3445 HO1   -15.881116   11.474472   32.653201 H    523 MOH     0.4215 ****
3446 HC1    -4.391269    7.147856   21.557282 H    524 MOH     0.0372 ****
3447 C1     -4.578330    6.161937   21.982253 C    524 MOH     0.1166 ****
3448 HC2    -4.970351    6.256650   22.994830 H    524 MOH     0.0372 ****
3449 HC3    -3.621083    5.645502   22.050842 H    524 MOH     0.0372 ****
3450 O1     -5.419529    5.358096   21.133017 O    524 MOH    -0.6497 ****
3451 HO1    -6.135444    5.011901   21.670419 H    524 MOH     0.4215 ****
3452 HC1    -1.760861    7.619791   28.194186 H    525 MOH     0.0372 ****
3453 C1     -2.609566    8.054576   28.722395 C    525 MOH     0.1166 ****
3454 HC2    -2.745820    9.081728   28.384397 H    525 MOH     0.0372 ****
3455 HC3    -2.445021    8.042328   29.800025 H    525 MOH     0.0372 ****
3456 O1     -3.775236    7.356471   28.388640 O    525 MOH    -0.6497 ****
3457 HO1    -3.748100    6.555896   28.918263 H    525 MOH     0.4215 ****
3458 HC1     6.315692   16.390189   24.574506 H    526 MOH     0.0372 ****
3459 C1      6.121125   17.131568   25.349495 C    526 MOH     0.1166 ****
3460 HC2     5.057069   17.173618   25.582133 H    526 MOH     0.0372 ****
3461 HC3     6.422502   18.119937   25.002306 H    526 MOH     0.0372 ****
3462 O1      6.790851   16.801295   26.560769 O    526 MOH    -0.6497 ****
3463 HO1     6.573190   15.906823   26.833005 H    526 MOH     0.4215 ****
3464 HC1    -2.866487   14.695551   18.580362 H    527 MOH     0.0372 ****
3465 C1     -3.658611   14.163195   19.106449 C    527 MOH     0.1166 ****
3466 HC2    -3.631476   14.420799   20.164988 H    527 MOH     0.0372 ****
3467 HC3    -3.492912   13.095625   18.964321 H    527 MOH     0.0372 ****
3468 O1     -4.887212   14.578792   18.550663 O    527 MOH    -0.6497 ****
3469 HO1    -5.581765   14.219941   19.108571 H    527 MOH     0.4215 ****
3470 HC1    -2.170202   22.586582   17.461012 H    528 MOH     0.0372 ****
3471 C1     -1.632689   22.929102   16.576421 C    528 MOH     0.1166 ****
3472 HC2    -1.960624   22.355105   15.709508 H    528 MOH     0.0372 ****
3473 HC3    -0.573251   22.744574   16.754612 H    528 MOH     0.0372 ****
3474 O1     -1.893074   24.309798   16.307721 O    528 MOH    -0.6497 ****
3475 HO1    -1.633844   24.514738   15.406867 H    528 MOH     0.4215 ****
3476 HC1     1.198637   20.754363   26.103271 H    529 MOH     0.0372 ****
3477 C1      1.247134   19.666790   26.052359 C    529 MOH     0.1166 ****
3478 HC2     0.868970   19.312022   25.094230 H    529 MOH     0.0372 ****
3479 HC3     0.640339   19.220166   26.840076 H    529 MOH     0.0372 ****
3480 O1      2.583700   19.232414   26.125898 O    529 MOH    -0.6497 ****
3481 HO1     2.551368   18.273030   26.147112 H    529 MOH     0.4215 ****
3482 HC1    -7.711610   19.729660   20.529855 H    530 MOH     0.0372 ****
3483 C1     -7.665999   19.274872   19.539906 C    530 MOH     0.1166 ****
3484 HC2    -6.748590   18.695976   19.431011 H    530 MOH     0.0372 ****
3485 HC3    -7.676392   20.052585   18.776938 H    530 MOH     0.0372 ****
3486 O1     -8.769316   18.438371   19.322824 O    530 MOH    -0.6497 ****
3487 HO1    -8.510085   17.550839   19.580211 H    530 MOH     0.4215 ****
3488 HC1     0.395542   15.172793   19.025132 H    531 MOH     0.0372 ****
3489 C1      0.594151   16.133401   19.499601 C    531 MOH     0.1166 ****
3490 HC2     1.658785   16.350589   19.416162 H    531 MOH     0.0372 ****
3491 HC3     0.364943   16.098292   20.564504 H    531 MOH     0.0372 ****
3492 O1     -0.199128   17.129119   18.848355 O    531 MOH    -0.6497 ****
3493 HO1    -0.151786   17.905199   19.411919 H    531 MOH     0.4215 ****
3494 HC1   -14.029554   13.885994   27.470815 H    532 MOH     0.0372 ****
3495 C1    -13.115031   14.192180   26.963113 C    532 MOH     0.1166 ****
3496 HC2   -12.519783   14.846602   27.600216 H    532 MOH     0.0372 ****
3497 HC3   -13.390427   14.738417   26.060844 H    532 MOH     0.0372 ****
3498 O1    -12.412973   13.052759   26.565012 O    532 MOH    -0.6497 ****
3499 HO1   -11.478243   13.251576   26.654814 H    532 MOH     0.4215 ****
3500 HC1    -0.763200    9.705532   24.037105 H    533 MOH     0.0372 ****
3501 C1     -0.715857   10.428948   24.851692 C    533 MOH     0.1166 ****
3502 HC2    -1.509136   11.156446   24.680572 H    533 MOH     0.0372 ****
3503 HC3     0.244854   10.942524   24.805023 H    533 MOH     0.0372 ****
3504 O1     -0.901186    9.787181   26.145697 O    533 MOH    -0.6497 ****
3505 HO1    -1.092867   10.462832   26.801185 H    533 MOH     0.4215 ****
3506 HC1   -17.083737   13.548373   22.615113 H    534 MOH     0.0372 ****
3507 C1    -17.041013   13.790056   23.677187 C    534 MOH     0.1166 ****
3508 HC2   -16.004092   13.728002   24.008113 H    534 MOH     0.0372 ****
3509 HC3   -17.638571   13.088277   24.259136 H    534 MOH     0.0372 ****
3510 O1    -17.474603   15.083795   23.946595 O    534 MOH    -0.6497 ****
3511 HO1   -18.244211   15.275263   23.405658 H    534 MOH     0.4215 ****
3512 HC1   -13.774365   15.657792   23.001901 H    535 MOH     0.0372 ****
3513 C1    -14.314765   16.527361   22.628548 C    535 MOH     0.1166 ****
3514 HC2   -14.758170   16.197904   21.688803 H    535 MOH     0.0372 ****
3515 HC3   -13.591923   17.330385   22.482177 H    535 MOH     0.0372 ****
3516 O1    -15.306075   16.865798   23.622033 O    535 MOH    -0.6497 ****
3517 HO1   -15.941738   16.151772   23.704765 H    535 MOH     0.4215 ****
3518 HC1   -15.330901    8.885769   18.692792 H    536 MOH     0.0372 ****
3519 C1    -14.918096    9.893326   18.656022 C    536 MOH     0.1166 ****
3520 HC2   -15.003544   10.364036   19.635365 H    536 MOH     0.0372 ****
3521 HC3   -15.494869   10.481203   17.941844 H    536 MOH     0.0372 ****
3522 O1    -13.578643    9.837804   18.224687 O    536 MOH    -0.6497 ****
3523 HO1   -13.545157    9.177258   17.528894 H    536 MOH     0.4215 ****
3524 HC1     0.782367    7.042528   24.641681 H    537 MOH     0.0372 ****
3525 C1      0.102248    6.473838   25.275956 C    537 MOH     0.1166 ****
3526 HC2     0.456742    6.510989   26.306211 H    537 MOH     0.0372 ****
3527 HC3     0.047400    5.437296   24.944323 H    537 MOH     0.0372 ****
3528 O1     -1.130394    7.096825   25.193932 O    537 MOH    -0.6497 ****
3529 HO1    -1.028203    7.989664   25.529807 H    537 MOH     0.4215 ****
3530 HC1    -5.349670   13.505915   29.625370 H    538 MOH     0.0372 ****
3531 C1     -5.489966   13.351597   28.556224 C    538 MOH     0.1166 ****
3532 HC2    -5.686265   14.306082   28.066906 H    538 MOH     0.0372 ****
3533 HC3    -6.324237   12.672680   28.380155 H    538 MOH     0.0372 ****
3534 O1     -4.314481   12.797196   28.004681 O    538 MOH    -0.6497 ****
3535 HO1    -3.667849   12.696359   28.706838 H    538 MOH     0.4215 ****
3536 HC1    -7.893475   13.299750   22.256610 H    539 MOH     0.0372 ****
3537 C1     -8.054556   12.286886   22.625013 C    539 MOH     0.1166 ****
3538 HC2    -8.805689   12.331793   23.412730 H    539 MOH     0.0372 ****
3539 HC3    -7.129641   11.886394   23.040084 H    539 MOH     0.0372 ****
3540 O1     -8.506044   11.440179   21.568595 O    539 MOH    -0.6497 ****
3541 HO1    -8.101321   10.582041   21.718502 H    539 MOH     0.4215 ****
3542 HC1     1.112034    7.416892   29.870736 H    540 MOH     0.0372 ****
3543 C1      0.945757    7.503849   30.944831 C    540 MOH     0.1166 ****
3544 HC2     1.017926    8.559987   31.204339 H    540 MOH     0.0372 ****
3545 HC3     1.732686    6.949856   31.457484 H    540 MOH     0.0372 ****
3546 O1     -0.379839    6.984965   31.178884 O    540 MOH    -0.6497 ****
3547 HO1    -0.691031    7.333609   32.017512 H    540 MOH     0.4215 ****
3548 HC1    -4.092201   26.343691   22.043771 H    541 MOH     0.0372 ****
3549 C1     -4.673016   26.724995   22.883814 C    541 MOH     0.1166 ****
3550 HC2    -4.375680   27.732143   23.175849 H    541 MOH     0.0372 ****
3551 HC3    -4.465169   26.069756   23.730221 H    541 MOH     0.0372 ****
3552 O1     -6.052305   26.681312   22.598850 O    541 MOH    -0.6497 ****
3553 HO1    -6.457605   26.006478   23.148272 H    541 MOH     0.4215 ****
3554 HC1     0.705579   13.554905   28.689161 H    542 MOH     0.0372 ****
3555 C1      0.688836   12.547756   28.271260 C    542 MOH     0.1166 ****
3556 HC2     1.190554   11.889252   28.979074 H    542 MOH     0.0372 ****
3557 HC3     1.240206   12.519179   27.330808 H    542 MOH     0.0372 ****
3558 O1     -0.654080   12.112155   28.122061 O    542 MOH    -0.6497 ****
3559 HO1    -1.145983   12.373026   28.904828 H    542 MOH     0.4215 ****
3560 HC1    -5.159722   17.345899   27.820833 H    543 MOH     0.0372 ****
3561 C1     -6.223201   17.546757   27.689311 C    543 MOH     0.1166 ****
3562 HC2    -6.805170   16.625749   27.716181 H    543 MOH     0.0372 ****
3563 HC3    -6.388323   18.017467   26.719868 H    543 MOH     0.0372 ****
3564 O1     -6.673534   18.437146   28.668654 O    543 MOH    -0.6497 ****
3565 HO1    -6.563260   19.331618   28.338435 H    543 MOH     0.4215 ****
3566 HC1    -1.446782   20.273447   25.024226 H    544 MOH     0.0372 ****
3567 C1     -1.850927   20.619233   24.073167 C    544 MOH     0.1166 ****
3568 HC2    -2.783925   20.095859   23.861035 H    544 MOH     0.0372 ****
3569 HC3    -1.129817   20.474305   23.269187 H    544 MOH     0.0372 ****
3570 O1     -2.097456   21.985232   24.227317 O    544 MOH    -0.6497 ****
3571 HO1    -1.273000   22.440837   24.415407 H    544 MOH     0.4215 ****
3572 HC1    -5.679337    9.017633   30.227825 H    545 MOH     0.0372 ****
3573 C1     -5.865244    9.603470   29.327678 C    545 MOH     0.1166 ****
3574 HC2    -5.847346    8.979666   28.433895 H    545 MOH     0.0372 ****
3575 HC3    -5.117575   10.388939   29.218783 H    545 MOH     0.0372 ****
3576 O1     -7.107702   10.191755   29.457078 O    545 MOH    -0.6497 ****
3577 HO1    -7.406192   10.302391   28.551275 H    545 MOH     0.4215 ****
3578 HC1    -4.494614   12.592664   31.646988 H    546 MOH     0.0372 ****
3579 C1     -3.740595   11.839037   31.419300 C    546 MOH     0.1166 ****
3580 HC2    -4.226724   10.949464   31.019784 H    546 MOH     0.0372 ****
3581 HC3    -3.251579   11.549589   32.349145 H    546 MOH     0.0372 ****
3582 O1     -2.806442   12.381191   30.474605 O    546 MOH    -0.6497 ****
3583 HO1    -2.589936   13.278929   30.734113 H    546 MOH     0.4215 ****
3584 HC1    -6.249182   20.945424   22.560666 H    547 MOH     0.0372 ****
3585 C1     -6.486473   20.658833   23.585971 C    547 MOH     0.1166 ****
3586 HC2    -5.724370   19.996246   23.995386 H    547 MOH     0.0372 ****
3587 HC3    -7.439678   20.130152   23.566879 H    547 MOH     0.0372 ****
3588 O1     -6.588086   21.785190   24.423892 O    547 MOH    -0.6497 ****
3589 HO1    -5.814437   22.341633   24.304391 H    547 MOH     0.4215 ****
3590 HC1    -8.558006    5.963120   28.912606 H    548 MOH     0.0372 ****
3591 C1     -8.965038    6.963736   28.767649 C    548 MOH     0.1166 ****
3592 HC2   -10.010619    6.918012   28.462179 H    548 MOH     0.0372 ****
3593 HC3    -8.408472    7.421383   27.950941 H    548 MOH     0.0372 ****
3594 O1     -8.810308    7.787581   29.924476 O    548 MOH    -0.6497 ****
3595 HO1    -8.527406    8.667765   29.664261 H    548 MOH     0.4215 ****
3596 HC1    -9.152099   10.368527   31.135043 H    549 MOH     0.0372 ****
3597 C1     -9.063764   11.354447   31.591127 C    549 MOH     0.1166 ****
3598 HC2    -9.664786   11.386290   32.499052 H    549 MOH     0.0372 ****
3599 HC3    -9.415948   12.089702   30.867756 H    549 MOH     0.0372 ****
3600 O1     -7.723734   11.558163   31.898718 O    549 MOH    -0.6497 ****
3601 HO1    -7.238760   11.091535   31.214946 H    549 MOH     0.4215 ****
3602 HC1     0.792759   22.160779   23.357575 H    550 MOH     0.0372 ****
3603 C1      1.213070   23.044228   23.838408 C    550 MOH     0.1166 ****
3604 HC2     1.466527   23.786015   23.081097 H    550 MOH     0.0372 ****
3605 HC3     2.099880   22.761312   24.404800 H    550 MOH     0.0372 ****
3606 O1      0.207904   23.540658   24.661480 O    550 MOH    -0.6497 ****
3607 HO1     0.564129   23.737025   25.530514 H    550 MOH     0.4215 ****
3608 HC1    -7.188531    5.531193   31.948923 H    551 MOH     0.0372 ****
3609 C1     -6.112350    5.539358   31.779217 C    551 MOH     0.1166 ****
3610 HC2    -5.692039    6.399537   32.298941 H    551 MOH     0.0372 ****
3611 HC3    -5.908545    5.599779   30.710072 H    551 MOH     0.0372 ****
3612 O1     -5.518834    4.394630   32.279849 O    551 MOH    -0.6497 ****
3613 HO1    -5.980714    4.133351   33.078879 H    551 MOH     0.4215 ****
3614 HC1   -10.542358   20.199146   24.547636 H    552 MOH     0.0372 ****
3615 C1    -11.124905   19.326311   24.843207 C    552 MOH     0.1166 ****
3616 HC2   -10.788887   18.411427   24.356010 H    552 MOH     0.0372 ****
3617 HC3   -12.145083   19.506348   24.505917 H    552 MOH     0.0372 ****
3618 O1    -11.131833   19.179342   26.246106 O    552 MOH    -0.6497 ****
3619 HO1   -11.318317   20.041154   26.627237 H    552 MOH     0.4215 ****
3620 HC1   -11.373165   17.184640   28.818561 H    553 MOH     0.0372 ****
3621 C1    -10.341441   16.900908   28.612793 C    553 MOH     0.1166 ****
3622 HC2   -10.070663   16.075022   29.269695 H    553 MOH     0.0372 ****
3623 HC3    -9.693076   17.751697   28.823511 H    553 MOH     0.0372 ****
3624 O1    -10.203454   16.581658   27.250905 O    553 MOH    -0.6497 ****
3625 HO1   -10.500212   17.374476   26.798357 H    553 MOH     0.4215 ****
3626 HC1    -5.879100   16.457142   23.132008 H    554 MOH     0.0372 ****
3627 C1     -5.864667   17.164636   22.302572 C    554 MOH     0.1166 ****
3628 HC2    -6.855400   17.595746   22.161151 H    554 MOH     0.0372 ****
3629 HC3    -5.525762   16.671472   21.391818 H    554 MOH     0.0372 ****
3630 O1     -4.987671   18.216284   22.609456 O    554 MOH    -0.6497 ****
3631 HO1    -4.791372   18.223224   23.549201 H    554 MOH     0.4215 ****
3632 HC1   -10.022743    8.709814   37.010393 H    555 MOH     0.0372 ****
3633 C1     -9.030278    8.730635   36.559966 C    555 MOH     0.1166 ****
3634 HC2    -8.507199    9.641845   36.849880 H    555 MOH     0.0372 ****
3635 HC3    -9.090323    8.675113   35.473850 H    555 MOH     0.0372 ****
3636 O1     -8.295311    7.665923   37.008272 O    555 MOH    -0.6497 ****
3637 HO1    -8.742180    6.869839   36.712701 H    555 MOH     0.4215 ****
3638 HC1   -12.082729   20.939300   30.015693 H    556 MOH     0.0372 ****
3639 C1    -12.322329   20.306515   30.869878 C    556 MOH     0.1166 ****
3640 HC2   -13.367911   20.431031   31.150599 H    556 MOH     0.0372 ****
3641 HC3   -11.690131   20.613926   31.703557 H    556 MOH     0.0372 ****
3642 O1    -12.020375   18.956438   30.553801 O    556 MOH    -0.6497 ****
3643 HO1   -12.482833   18.683320   29.758306 H    556 MOH     0.4215 ****
3644 HC1   -14.676186   13.000912   20.915936 H    557 MOH     0.0372 ****
3645 C1    -13.888103   13.035205   20.163574 C    557 MOH     0.1166 ****
3646 HC2   -14.308414   13.426715   19.236557 H    557 MOH     0.0372 ****
3647 HC3   -13.490309   12.037446   19.976898 H    557 MOH     0.0372 ****
3648 O1    -12.881782   13.935392   20.513592 O    557 MOH    -0.6497 ****
3649 HO1   -12.054439   13.470397   20.370049 H    557 MOH     0.4215 ****
3650 HC1   -11.472470   12.380374   18.197817 H    558 MOH     0.0372 ****
3651 C1    -11.042344   11.810460   19.022304 C    558 MOH     0.1166 ****
3652 HC2   -10.266962   11.166652   18.607232 H    558 MOH     0.0372 ****
3653 HC3   -11.787703   11.161753   19.482630 H    558 MOH     0.0372 ****
3654 O1    -10.473076   12.704932   19.962049 O    558 MOH    -0.6497 ****
3655 HO1   -10.058539   12.165636   20.638750 H    558 MOH     0.4215 ****
3656 HC1    -1.125198   21.095659   20.483186 H    559 MOH     0.0372 ****
3657 C1     -0.381571   20.574734   19.880731 C    559 MOH     0.1166 ****
3658 HC2     0.534107   21.164245   19.832648 H    559 MOH     0.0372 ****
3659 HC3    -0.717589   20.453484   18.850477 H    559 MOH     0.0372 ****
3660 O1     -0.043244   19.345907   20.464801 O    559 MOH    -0.6497 ****
3661 HO1    -0.747034   19.074422   21.058064 H    559 MOH     0.4215 ****
3662 HC1    -0.409284   15.418558   25.143020 H    560 MOH     0.0372 ****
3663 C1     -0.448544   14.348948   24.937959 C    560 MOH     0.1166 ****
3664 HC2    -1.226812   13.920695   25.569405 H    560 MOH     0.0372 ****
3665 HC3     0.520250   13.912530   25.181911 H    560 MOH     0.0372 ****
3666 O1     -0.737219   14.057050   23.569707 O    560 MOH    -0.6497 ****
3667 HO1    -0.307670   13.242595   23.297471 H    560 MOH     0.4215 ****
3668 HC1     3.752257   14.098692   22.896542 H    561 MOH     0.0372 ****
3669 C1      3.229755   15.027865   23.124230 C    561 MOH     0.1166 ****
3670 HC2     2.197453   14.814759   23.402830 H    561 MOH     0.0372 ****
3671 HC3     3.270169   15.674122   22.248125 H    561 MOH     0.0372 ****
3672 O1      3.917379   15.591247   24.190547 O    561 MOH    -0.6497 ****
3673 HO1     4.379837   14.875996   24.633196 H    561 MOH     0.4215 ****
3674 HC1    -2.847434    9.312797   32.536528 H    562 MOH     0.0372 ****
3675 C1     -2.596287    8.792280   33.460717 C    562 MOH     0.1166 ****
3676 HC2    -3.263126    7.938633   33.581632 H    562 MOH     0.0372 ****
3677 HC3    -2.719262    9.462216   34.311367 H    562 MOH     0.0372 ****
3678 O1     -1.256257    8.361578   33.363843 O    562 MOH    -0.6497 ****
3679 HO1    -1.066309    7.805952   34.122569 H    562 MOH     0.4215 ****
3680 HC1    -1.374613   16.243220   22.515411 H    563 MOH     0.0372 ****
3681 C1     -2.311653   16.499192   22.022558 C    563 MOH     0.1166 ****
3682 HC2    -3.149966   16.167286   22.635619 H    563 MOH     0.0372 ****
3683 HC3    -2.330128   16.000312   21.053821 H    563 MOH     0.0372 ****
3684 O1     -2.342253   17.882745   21.805476 O    563 MOH    -0.6497 ****
3685 HO1    -3.258507   18.124020   21.653448 H    563 MOH     0.4215 ****
3686 HC1   -11.321204   15.541033   31.757297 H    564 MOH     0.0372 ****
3687 C1    -12.330990   15.940300   31.849221 C    564 MOH     0.1166 ****
3688 HC2   -12.943558   15.198921   32.362580 H    564 MOH     0.0372 ****
3689 HC3   -12.732248   16.132176   30.853614 H    564 MOH     0.0372 ****
3690 O1    -12.262862   17.129119   32.611482 O    564 MOH    -0.6497 ****
3691 HO1   -11.928576   17.822324   32.037311 H    564 MOH     0.4215 ****
3692 HC1    -4.704192   11.533259   20.807748 H    565 MOH     0.0372 ****
3693 C1     -4.398774   10.553055   20.440760 C    565 MOH     0.1166 ****
3694 HC2    -3.449610   10.632664   19.911137 H    565 MOH     0.0372 ****
3695 HC3    -5.165495   10.160729   19.773958 H    565 MOH     0.0372 ****
3696 O1     -4.245199    9.632455   21.514855 O    565 MOH    -0.6497 ****
3697 HO1    -3.395917    9.198487   21.406668 H    565 MOH     0.4215 ****
3698 HC1     1.136860    8.884953   27.480715 H    566 MOH     0.0372 ****
3699 C1      2.008082    9.388323   27.061401 C    566 MOH     0.1166 ****
3700 HC2     1.710169   10.337500   26.618045 H    566 MOH     0.0372 ****
3701 HC3     2.446868    8.776767   26.272270 H    566 MOH     0.0372 ****
3702 O1      2.976875    9.663482   28.047108 O    566 MOH    -0.6497 ****
3703 HO1     3.407001    8.825348   28.230248 H    566 MOH     0.4215 ****
3704 HC1    -7.418316   15.208719   15.732843 H    567 MOH     0.0372 ****
3705 C1     -6.494556   15.396921   15.184835 C    567 MOH     0.1166 ****
3706 HC2    -5.903926   14.482037   15.222312 H    567 MOH     0.0372 ****
3707 HC3    -5.972054   16.220358   15.672032 H    567 MOH     0.0372 ****
3708 O1     -6.767642   15.749239   13.830726 O    567 MOH    -0.6497 ****
3709 HO1    -5.985910   16.171368   13.467273 H    567 MOH     0.4215 ****
3710 HC1    -3.310469   24.464524   25.753960 H    568 MOH     0.0372 ****
3711 C1     -4.325451   24.081179   25.650015 C    568 MOH     0.1166 ****
3712 HC2    -5.046561   24.898492   25.671229 H    568 MOH     0.0372 ****
3713 HC3    -4.560432   23.386340   26.456117 H    568 MOH     0.0372 ****
3714 O1     -4.453045   23.369194   24.467733 O    568 MOH    -0.6497 ****
3715 HO1    -3.732512   22.736001   24.435913 H    568 MOH     0.4215 ****
3716 HC1    -9.831640   10.470589   26.643501 H    569 MOH     0.0372 ****
3717 C1     -8.974852   10.212576   26.019832 C    569 MOH     0.1166 ****
3718 HC2    -8.788946   11.005803   25.296462 H    569 MOH     0.0372 ****
3719 HC3    -9.220804    9.308714   25.462632 H    569 MOH     0.0372 ****
3720 O1     -7.811492   10.021924   26.820984 O    569 MOH    -0.6497 ****
3721 HO1    -7.115207    9.674097   26.259542 H    569 MOH     0.4215 ****
3722 HC1    -3.776968   10.130518   25.826792 H    570 MOH     0.0372 ****
3723 C1     -4.275221    9.354846   25.246965 C    570 MOH     0.1166 ****
3724 HC2    -3.548337    8.609385   24.924524 H    570 MOH     0.0372 ****
3725 HC3    -4.737679    9.828823   24.380759 H    570 MOH     0.0372 ****
3726 O1     -5.250366    8.724103   26.043874 O    570 MOH    -0.6497 ****
3727 HO1    -4.778671    8.355046   26.793407 H    570 MOH     0.4215 ****
3728 HC1    -4.452468   21.829281   21.533240 H    571 MOH     0.0372 ****
3729 C1     -3.859529   21.490843   20.684005 C    571 MOH     0.1166 ****
3730 HC2    -3.492334   20.495126   20.932199 H    571 MOH     0.0372 ****
3731 HC3    -3.012556   22.160779   20.531977 H    571 MOH     0.0372 ****
3732 O1     -4.663778   21.439812   19.513743 O    571 MOH    -0.6497 ****
3733 HO1    -4.256746   20.789473   18.936037 H    571 MOH     0.4215 ****
3734 HC1    -8.695992   22.150164   27.195751 H    572 MOH     0.0372 ****
3735 C1     -8.514704   21.111989   27.475058 C    572 MOH     0.1166 ****
3736 HC2    -9.174038   20.474713   26.886038 H    572 MOH     0.0372 ****
3737 HC3    -8.739294   20.957263   28.530768 H    572 MOH     0.0372 ****
3738 O1     -7.184489   20.716396   27.233935 O    572 MOH    -0.6497 ****
3739 HO1    -7.004933   20.824582   26.297018 H    572 MOH     0.4215 ****
3740 HC1    -4.807538   16.362020   30.854321 H    573 MOH     0.0372 ****
3741 C1     -4.353741   17.241387   31.311112 C    573 MOH     0.1166 ****
3742 HC2    -3.516583   17.558188   30.688858 H    573 MOH     0.0372 ****
3743 HC3    -4.050055   16.992356   32.327932 H    573 MOH     0.0372 ****
3744 O1     -5.304059   18.239146   31.275757 O    573 MOH    -0.6497 ****
3745 HO1    -5.631994   18.294668   30.374903 H    573 MOH     0.4215 ****
3746 HC1    -1.185243   12.421608   32.697042 H    574 MOH     0.0372 ****
3747 C1     -0.362519   11.730852   32.511780 C    574 MOH     0.1166 ****
3748 HC2    -0.087122   11.852101   31.464555 H    574 MOH     0.0372 ****
3749 HC3    -0.670824   10.691043   32.618553 H    574 MOH     0.0372 ****
3750 O1      0.727519   12.041528   33.396370 O    574 MOH    -0.6497 ****
3751 HO1     1.338355   11.300966   33.409098 H    574 MOH     0.4215 ****
3752 HC1    -5.438005   13.763111   23.501825 H    575 MOH     0.0372 ****
3753 C1     -4.510780   13.586340   24.045590 C    575 MOH     0.1166 ****
3754 HC2    -4.576598   12.661658   24.619054 H    575 MOH     0.0372 ****
3755 HC3    -4.287346   14.422841   24.708149 H    575 MOH     0.0372 ****
3756 O1     -3.507345   13.484278   23.115038 O    575 MOH    -0.6497 ****
3757 HO1    -2.697323   13.825165   23.501825 H    575 MOH     0.4215 ****
3758 HC1    -7.534941   13.907223   18.228930 H    576 MOH     0.0372 ****
3759 C1     -7.254926   12.998871   18.762795 C    576 MOH     0.1166 ****
3760 HC2    -6.446636   12.503257   18.225394 H    576 MOH     0.0372 ****
3761 HC3    -8.085733   12.293009   18.786130 H    576 MOH     0.0372 ****
3762 O1     -6.817294   13.260150   20.082257 O    576 MOH    -0.6497 ****
3763 HO1    -7.164859   12.555513   20.633800 H    576 MOH     0.4215 ****
3764 HC1     3.408733   16.205661   27.654663 H    577 MOH     0.0372 ****
3765 C1      2.398948   15.884778   27.398691 C    577 MOH     0.1166 ****
3766 HC2     1.701509   16.315480   28.117818 H    577 MOH     0.0372 ****
3767 HC3     2.317541   14.798429   27.433339 H    577 MOH     0.0372 ****
3768 O1      2.043877   16.344057   26.126606 O    577 MOH    -0.6497 ****
3769 HO1     2.642590   15.936625   25.497280 H    577 MOH     0.4215 ****
3770 HC1    -3.100891    3.419733   30.069433 H    578 MOH     0.0372 ****
3771 C1     -2.519499    4.177033   30.596228 C    578 MOH     0.1166 ****
3772 HC2    -1.465835    3.932901   30.459049 H    578 MOH     0.0372 ****
3773 HC3    -2.749285    4.187648   31.661130 H    578 MOH     0.0372 ****
3774 O1     -2.647671    5.437296   30.043977 O    578 MOH    -0.6497 ****
3775 HO1    -1.849195    5.913722   30.285101 H    578 MOH     0.4215 ****
3776 HC1    -7.945437   14.776792   35.151409 H    579 MOH     0.0372 ****
3777 C1     -7.600182   13.933759   34.553904 C    579 MOH     0.1166 ****
3778 HC2    -6.860018   13.401812   35.152824 H    579 MOH     0.0372 ****
3779 HC3    -7.158509   14.319554   33.635372 H    579 MOH     0.0372 ****
3780 O1     -8.652691   13.016017   34.220150 O    579 MOH    -0.6497 ****
3781 HO1    -8.373831   12.502849   33.458596 H    579 MOH     0.4215 ****
3782 HC1    -2.880343    3.097217   25.406771 H    580 MOH     0.0372 ****
3783 C1     -2.913252    4.182341   25.307776 C    580 MOH     0.1166 ****
3784 HC2    -2.468115    4.651418   26.185295 H    580 MOH     0.0372 ****
3785 HC3    -3.950750    4.508123   25.232823 H    580 MOH     0.0372 ****
3786 O1     -2.227360    4.559562   24.142464 O    580 MOH    -0.6497 ****
3787 HO1    -2.125746    5.512822   24.182769 H    580 MOH     0.4215 ****
3788 HC1     5.553012   11.914155   26.589761 H    581 MOH     0.0372 ****
3789 C1      4.647150   12.238712   26.078522 C    581 MOH     0.1166 ****
3790 HC2     3.761494   11.845978   26.577740 H    581 MOH     0.0372 ****
3791 HC3     4.654655   11.890477   25.045439 H    581 MOH     0.0372 ****
3792 O1      4.554196   13.630839   26.092664 O    581 MOH    -0.6497 ****
3793 HO1     4.824396   13.916205   26.968770 H    581 MOH     0.4215 ****
3794 HC1    -1.912704   16.477963   28.574609 H    582 MOH     0.0372 ****
3795 C1     -1.249329   15.656159   28.844017 C    582 MOH     0.1166 ****
3796 HC2    -0.233192   16.042362   28.921799 H    582 MOH     0.0372 ****
3797 HC3    -1.263185   14.873547   28.085291 H    582 MOH     0.0372 ****
3798 O1     -1.627493   15.229131   30.130951 O    582 MOH    -0.6497 ****
3799 HO1    -1.573799   15.998271   30.702293 H    582 MOH     0.4215 ****
3800 HC1    -7.426399   15.441012   23.696987 H    583 MOH     0.0372 ****
3801 C1     -8.056866   15.127477   24.528544 C    583 MOH     0.1166 ****
3802 HC2    -9.033165   14.814759   24.158020 H    583 MOH     0.0372 ****
3803 HC3    -8.227184   15.954588   25.218680 H    583 MOH     0.0372 ****
3804 O1     -7.454689   14.073380   25.224337 O    583 MOH    -0.6497 ****
3805 HO1    -8.105363   13.719021   25.833863 H    583 MOH     0.4215 ****
3806 HC1    -4.764237   20.173426   26.840783 H    584 MOH     0.0372 ****
3807 C1     -4.107790   20.448994   27.665977 C    584 MOH     0.1166 ****
3808 HC2    -4.654540   20.413068   28.609257 H    584 MOH     0.0372 ****
3809 HC3    -3.761380   21.471656   27.515363 H    584 MOH     0.0372 ****
3810 O1     -2.988885   19.576975   27.731031 O    584 MOH    -0.6497 ****
3811 HO1    -2.383822   19.903574   28.401368 H    584 MOH     0.4215 ****
3812 HC1   -15.426164   10.105615   26.893816 H    585 MOH     0.0372 ****
3813 C1    -14.782419   10.889860   26.497129 C    585 MOH     0.1166 ****
3814 HC2   -14.748355   11.691251   27.234642 H    585 MOH     0.0372 ****
3815 HC3   -15.181368   11.329952   25.582133 H    585 MOH     0.0372 ****
3816 O1    -13.470679   10.425273   26.266613 O    585 MOH    -0.6497 ****
3817 HO1   -13.028429   11.212376   25.941343 H    585 MOH     0.4215 ****
3818 HC1    -8.656155   17.246286   31.072110 H    586 MOH     0.0372 ****
3819 C1     -8.493342   17.022158   32.126406 C    586 MOH     0.1166 ****
3820 HC2    -7.925807   16.095434   32.218330 H    586 MOH     0.0372 ****
3821 HC3    -9.477147   16.904582   32.580369 H    586 MOH     0.0372 ****
3822 O1     -7.800522   18.098708   32.718255 O    586 MOH    -0.6497 ****
3823 HO1    -6.962209   18.189339   32.260050 H    586 MOH     0.4215 ****
3824 HC1    -8.933861   17.141366   21.736179 H    587 MOH     0.0372 ****
3825 C1     -9.067228   16.118704   21.383333 C    587 MOH     0.1166 ****
3826 HC2   -10.066044   16.041137   20.954826 H    587 MOH     0.0372 ****
3827 HC3    -8.993905   15.401820   22.200749 H    587 MOH     0.0372 ****
3828 O1     -8.146932   15.841504   20.371463 O    587 MOH    -0.6497 ****
3829 HO1    -8.030885   14.893551   20.279539 H    587 MOH     0.4215 ****
3830 HC1    -6.746858    7.866781   20.693904 H    588 MOH     0.0372 ****
3831 C1     -7.483557    8.212568   21.418689 C    588 MOH     0.1166 ****
3832 HC2    -7.754334    7.404644   22.099632 H    588 MOH     0.0372 ****
3833 HC3    -8.392306    8.512222   20.898258 H    588 MOH     0.0372 ****
3834 O1     -7.043616    9.294017   22.212769 O    588 MOH    -0.6497 ****
3835 HO1    -6.096184    9.225432   22.348534 H    588 MOH     0.4215 ****
3836 HC1    -5.798271   24.422066   21.046043 H    589 MOH     0.0372 ****
3837 C1     -6.645821   23.757438   21.215749 C    589 MOH     0.1166 ****
3838 HC2    -7.511269   24.401245   21.372019 H    589 MOH     0.0372 ****
3839 HC3    -6.413149   23.155680   22.093975 H    589 MOH     0.0372 ****
3840 O1     -6.779189   23.055659   20.000232 O    589 MOH    -0.6497 ****
3841 HO1    -5.933371   22.649860   19.795171 H    589 MOH     0.4215 ****
3842 HC1    -7.909641    5.616109   26.456117 H    590 MOH     0.0372 ****
3843 C1     -6.874452    5.920254   26.299847 C    590 MOH     0.1166 ****
3844 HC2    -6.285555    5.017617   26.132262 H    590 MOH     0.0372 ****
3845 HC3    -6.501484    6.477104   27.158274 H    590 MOH     0.0372 ****
3846 O1     -6.876762    6.651835   25.123221 O    590 MOH    -0.6497 ****
3847 HO1    -6.239367    7.360962   25.232823 H    590 MOH     0.4215 ****
3848 HC1     5.152909   10.808210   31.026856 H    591 MOH     0.0372 ****
3849 C1      5.536847   11.405069   30.199541 C    591 MOH     0.1166 ****
3850 HC2     6.224471   10.787798   29.621127 H    591 MOH     0.0372 ****
3851 HC3     6.037987   12.266882   30.641482 H    591 MOH     0.0372 ****
3852 O1      4.471635   11.844753   29.412531 O    591 MOH    -0.6497 ****
3853 HO1     3.942205   11.088677   29.150901 H    591 MOH     0.4215 ****
3854 HC1   -16.431909   19.111981   27.144839 H    592 MOH     0.0372 ****
3855 C1    -16.598185   20.182408   27.263633 C    592 MOH     0.1166 ****
3856 HC2   -16.244847   20.503291   28.243683 H    592 MOH     0.0372 ****
3857 HC3   -17.665129   20.395513   27.191508 H    592 MOH     0.0372 ****
3858 O1    -15.911139   20.896842   26.253885 O    592 MOH    -0.6497 ****
3859 HO1   -16.001783   20.366936   25.459097 H    592 MOH     0.4215 ****
3860 HC1    -9.768709   25.427990   24.295906 H    593 MOH     0.0372 ****
3861 C1     -8.897487   24.772751   24.276814 C    593 MOH     0.1166 ****
3862 HC2    -8.898065   24.201204   23.349090 H    593 MOH     0.0372 ****
3863 HC3    -8.925200   24.063624   25.104836 H    593 MOH     0.0372 ****
3864 O1     -7.719116   25.557405   24.350353 O    593 MOH    -0.6497 ****
3865 HO1    -7.748560   26.068123   25.162819 H    593 MOH     0.4215 ****
3866 HC1   -13.953921   18.662907   26.820984 H    594 MOH     0.0372 ****
3867 C1    -13.686608   17.658208   27.149789 C    594 MOH     0.1166 ****
3868 HC2   -12.742063   17.368760   26.689462 H    594 MOH     0.0372 ****
3869 HC3   -14.449288   16.944590   26.840076 H    594 MOH     0.0372 ****
3870 O1    -13.519176   17.665965   28.578852 O    594 MOH    -0.6497 ****
3871 HO1   -14.347674   17.853759   29.025743 H    594 MOH     0.4215 ****
3872 HC1     3.979733   19.799471   24.251358 H    595 MOH     0.0372 ****
3873 C1      3.532864   20.213434   23.347676 C    595 MOH     0.1166 ****
3874 HC2     2.505180   20.532276   23.519503 H    595 MOH     0.0372 ****
3875 HC3     3.563463   19.441029   22.578344 H    595 MOH     0.0372 ****
3876 O1      4.343464   21.277738   22.959474 O    595 MOH    -0.6497 ****
3877 HO1     4.525329   21.823974   23.727392 H    595 MOH     0.4215 ****
3878 HC1    -2.794318   17.547165   18.845527 H    596 MOH     0.0372 ****
3879 C1     -3.718656   18.062374   18.583897 C    596 MOH     0.1166 ****
3880 HC2    -4.431683   18.015426   19.407677 H    596 MOH     0.0372 ****
3881 HC3    -4.154555   17.616159   17.690822 H    596 MOH     0.0372 ****
3882 O1     -3.480787   19.411635   18.304590 O    596 MOH    -0.6497 ****
3883 HO1    -2.976183   19.441845   17.488589 H    596 MOH     0.4215 ****
3884 HC1   -12.534794    7.327485   19.385049 H    597 MOH     0.0372 ****
3885 C1    -12.020952    7.636529   20.295096 C    597 MOH     0.1166 ****
3886 HC2   -10.937843    7.610401   20.179130 H    597 MOH     0.0372 ****
3887 HC3   -12.324061    6.997213   21.125239 H    597 MOH     0.0372 ****
3888 O1    -12.460316    8.893934   20.577939 O    597 MOH    -0.6497 ****
3889 HO1   -12.792292    9.256050   19.752745 H    597 MOH     0.4215 ****
3890 HC1   -11.074675   26.154264   25.822549 H    598 MOH     0.0372 ****
3891 C1    -10.508295   26.459225   26.702897 C    598 MOH     0.1166 ****
3892 HC2   -10.122625   25.565570   27.194337 H    598 MOH     0.0372 ****
3893 HC3   -11.162433   26.983008   27.399398 H    598 MOH     0.0372 ****
3894 O1     -9.413639   27.273680   26.297725 O    598 MOH    -0.6497 ****
3895 HO1    -9.764668   28.148965   26.120948 H    598 MOH     0.4215 ****
3896 HC1   -19.158156   16.749448   25.219387 H    599 MOH     0.0372 ****
3897 C1    -18.599281   17.381824   25.908816 C    599 MOH     0.1166 ****
3898 HC2   -18.554248   18.382441   25.478188 H    599 MOH     0.0372 ****
3899 HC3   -17.586032   16.987456   25.989427 H    599 MOH     0.0372 ****
3900 O1    -19.264389   17.394072   27.197165 O    599 MOH    -0.6497 ****
3901 HO1   -18.797313   16.775984   27.762850 H    599 MOH     0.4215 ****
3902 HC1   -10.683232   10.536317   23.118573 H    600 MOH     0.0372 ****
3903 C1    -11.565423   11.119704   23.379496 C    600 MOH     0.1166 ****
3904 HC2   -11.261159   12.118279   23.690623 H    600 MOH     0.0372 ****
3905 HC3   -12.100627   10.629806   24.192668 H    600 MOH     0.0372 ****
3906 O1    -12.386415   11.174817   22.212062 O    600 MOH    -0.6497 ****
3907 HO1   -12.477059   10.286061   21.859216 H    600 MOH     0.4215 ****
3908 HC1    -3.146502    1.543832   28.569660 H    601 MOH     0.0372 ****
3909 C1     -2.308766    1.772043   27.909929 C    601 MOH     0.1166 ****
3910 HC2    -1.951386    2.773476   28.145395 H    601 MOH     0.0372 ****
3911 HC3    -2.659218    1.727135   26.878967 H    601 MOH     0.0372 ****
3912 O1     -1.227967    0.830214   28.114283 O    601 MOH    -0.6497 ****
3913 HO1    -0.394850    1.218458   27.836390 H    601 MOH     0.4215 ****
3914 HC1    -8.952913   12.399154   28.184993 H    602 MOH     0.0372 ****
3915 C1     -9.264682   13.442637   28.149638 C    602 MOH     0.1166 ****
3916 HC2    -8.458701   14.099916   28.477735 H    602 MOH     0.0372 ****
3917 HC3   -10.107614   13.565928   28.828460 H    602 MOH     0.0372 ****
3918 O1     -9.717902   13.788831   26.855633 O    602 MOH    -0.6497 ****
3919 HO1    -9.929212   14.724536   26.885331 H    602 MOH     0.4215 ****
3920 HC1   -13.227615   11.570002   29.001702 H    603 MOH     0.0372 ****
3921 C1    -12.456275   11.276879   29.714465 C    603 MOH     0.1166 ****
3922 HC2   -11.558495   11.020499   29.151608 H    603 MOH     0.0372 ****
3923 HC3   -12.786519   10.388531   30.253281 H    603 MOH     0.0372 ****
3924 O1    -12.195890   12.354247   30.623097 O    603 MOH    -0.6497 ****
3925 HO1   -12.862152   12.329344   31.313941 H    603 MOH     0.4215 ****
3926 HC1   -13.356941   12.180741   34.884830 H    604 MOH     0.0372 ****
3927 C1    -12.873699   12.030098   33.919629 C    604 MOH     0.1166 ****
3928 HC2   -12.418170   11.040504   33.899830 H    604 MOH     0.0372 ****
3929 HC3   -12.113329   12.799237   33.781036 H    604 MOH     0.0372 ****
3930 O1    -13.904846   12.079496   32.933215 O    604 MOH    -0.6497 ****
3931 HO1   -14.417534   12.880479   33.063323 H    604 MOH     0.4215 ****
3932 HC1   -17.657046   13.608385   28.551275 H    605 MOH     0.0372 ****
3933 C1    -17.069303   14.524086   28.612793 C    605 MOH     0.1166 ****
3934 HC2   -16.603382   14.734742   27.649713 H    605 MOH     0.0372 ****
3935 HC3   -16.280643   14.375484   29.349598 H    605 MOH     0.0372 ****
3936 O1    -17.851036   15.648810   28.988266 O    605 MOH    -0.6497 ****
3937 HO1   -18.251139   15.484695   29.845280 H    605 MOH     0.4215 ****
3938 HC1    -3.921883   16.215867   26.101150 H    606 MOH     0.0372 ****
3939 C1     -3.140151   16.889069   25.749718 C    606 MOH     0.1166 ****
3940 HC2    -2.580698   16.454284   24.921696 H    606 MOH     0.0372 ****
3941 HC3    -2.454836   17.094009   26.571376 H    606 MOH     0.0372 ****
3942 O1     -3.714037   18.088502   25.304240 O    606 MOH    -0.6497 ****
3943 HO1    -3.518892   18.731901   25.990134 H    606 MOH     0.4215 ****
3944 HC1     7.207005   23.550293   21.557282 H    607 MOH     0.0372 ****
3945 C1      7.019944   22.564373   21.982253 C    607 MOH     0.1166 ****
3946 HC2     6.627923   22.659087   22.994830 H    607 MOH     0.0372 ****
3947 HC3     7.977191   22.047939   22.050842 H    607 MOH     0.0372 ****
3948 O1      6.178745   21.760532   21.133017 O    607 MOH    -0.6497 ****
3949 HO1     5.462830   21.414338   21.670419 H    607 MOH     0.4215 ****
3950 HC1    -5.485463   29.950809   22.615113 H    608 MOH     0.0372 ****
3951 C1     -5.442739   30.192492   23.677187 C    608 MOH     0.1166 ****
3952 HC2    -4.405818   30.130439   24.008113 H    608 MOH     0.0372 ****
3953 HC3    -6.040296   29.490714   24.259136 H    608 MOH     0.0372 ****
3954 O1     -5.876329   31.486231   23.946595 O    608 MOH    -0.6497 ****
3955 HO1    -6.645937   31.677700   23.405658 H    608 MOH     0.4215 ****
3956 HC1    -3.732627   25.288206   18.692792 H    609 MOH     0.0372 ****
3957 C1     -3.319822   26.295762   18.656022 C    609 MOH     0.1166 ****
3958 HC2    -3.405270   26.766473   19.635365 H    609 MOH     0.0372 ****
3959 HC3    -3.896595   26.883640   17.941844 H    609 MOH     0.0372 ****
3960 O1     -1.980369   26.240241   18.224687 O    609 MOH    -0.6497 ****
3961 HO1    -1.946883   25.579695   17.528894 H    609 MOH     0.4215 ****
3962 HC1    -3.077912   29.403348   20.915936 H    610 MOH     0.0372 ****
3963 C1     -2.289829   29.437641   20.163574 C    610 MOH     0.1166 ****
3964 HC2    -2.710140   29.829151   19.236557 H    610 MOH     0.0372 ****
3965 HC3    -1.892035   28.439882   19.976898 H    610 MOH     0.0372 ****
3966 O1     -1.283508   30.337829   20.513592 O    610 MOH    -0.6497 ****
3967 HO1    -0.456165   29.872834   20.370049 H    610 MOH     0.4215 ****
3968 HC1     0.125804   28.782811   18.197817 H    611 MOH     0.0372 ****
3969 C1      0.555930   28.212896   19.022304 C    611 MOH     0.1166 ****
3970 HC2     1.331312   27.569089   18.607232 H    611 MOH     0.0372 ****
3971 HC3    -0.189429   27.564190   19.482630 H    611 MOH     0.0372 ****
3972 O1      1.125198   29.107368   19.962049 O    611 MOH    -0.6497 ****
3973 HO1     1.539735   28.568072   20.638750 H    611 MOH     0.4215 ****
3974 HC1     6.894082   27.935696   20.807748 H    612 MOH     0.0372 ****
3975 C1      7.199500   26.955492   20.440760 C    612 MOH     0.1166 ****
3976 HC2     8.148664   27.035100   19.911137 H    612 MOH     0.0372 ****
3977 HC3     6.432779   26.563165   19.773958 H    612 MOH     0.0372 ****
3978 O1      7.353075   26.034892   21.514855 O    612 MOH    -0.6497 ****
3979 HO1     8.202357   25.600924   21.406668 H    612 MOH     0.4215 ****
3980 HC1     4.179958   31.611155   15.732843 H    613 MOH     0.0372 ****
3981 C1      5.103719   31.799358   15.184835 C    613 MOH     0.1166 ****
3982 HC2     5.694348   30.884473   15.222312 H    613 MOH     0.0372 ****
3983 HC3     5.626220   32.622794   15.672032 H    613 MOH     0.0372 ****
3984 O1      4.830632   32.151676   13.830726 O    613 MOH    -0.6497 ****
3985 HO1     5.612364   32.573805   13.467273 H    613 MOH     0.4215 ****
3986 HC1     4.063333   30.309660   18.228930 H    614 MOH     0.0372 ****
3987 C1      4.343348   29.401307   18.762795 C    614 MOH     0.1166 ****
3988 HC2     5.151639   28.905694   18.225394 H    614 MOH     0.0372 ****
3989 HC3     3.512541   28.695446   18.786130 H    614 MOH     0.0372 ****
3990 O1      4.780980   29.662586   20.082257 O    614 MOH    -0.6497 ****
3991 HO1     4.433415   28.957950   20.633800 H    614 MOH     0.4215 ****
3992 HC1     4.851416   24.269218   20.693904 H    615 MOH     0.0372 ****
3993 C1      4.114717   24.615004   21.418689 C    615 MOH     0.1166 ****
3994 HC2     3.843940   23.807081   22.099632 H    615 MOH     0.0372 ****
3995 HC3     3.205968   24.914658   20.898258 H    615 MOH     0.0372 ****
3996 O1      4.554658   25.696454   22.212769 O    615 MOH    -0.6497 ****
3997 HO1     5.502090   25.627868   22.348534 H    615 MOH     0.4215 ****
3998 HC1    -0.936520   23.729922   19.385049 H    616 MOH     0.0372 ****
3999 C1     -0.422678   24.038966   20.295096 C    616 MOH     0.1166 ****
4000 HC2     0.660431   24.012838   20.179130 H    616 MOH     0.0372 ****
4001 HC3    -0.725787   23.399649   21.125239 H    616 MOH     0.0372 ****
4002 O1     -0.862042   25.296371   20.577939 O    616 MOH    -0.6497 ****
4003 HO1    -1.194018   25.658487   19.752745 H    616 MOH     0.4215 ****
4004 HC1     0.915042   26.938753   23.118573 H    617 MOH     0.0372 ****
4005 C1      0.032851   27.522140   23.379496 C    617 MOH     0.1166 ****
4006 HC2     0.337115   28.520716   23.690623 H    617 MOH     0.0372 ****
4007 HC3    -0.502353   27.032242   24.192668 H    617 MOH     0.0372 ****
4008 O1     -0.788141   27.577254   22.212062 O    617 MOH    -0.6497 ****
4009 HO1    -0.878785   26.688497   21.859216 H    617 MOH     0.4215 ****
4010 HC1   -22.218575  -18.451761   12.167752 H    618 MOH     0.0372 ****
4011 C1    -23.254918  -18.312957   12.474636 C    618 MOH     0.1166 ****
4012 HC2   -23.818412  -17.948799   11.616209 H    618 MOH     0.0372 ****
4013 HC3   -23.324778  -17.563005   13.263060 H    618 MOH     0.0372 ****
4014 O1    -23.780307  -19.555665   12.891829 O    618 MOH    -0.6497 ****
4015 HO1   -24.542987  -19.403388   13.453979 H    618 MOH     0.4215 ****
4016 HC1    -9.352324  -23.004546   14.984866 H    619 MOH     0.0372 ****
4017 C1     -8.918734  -22.811445   15.965623 C    619 MOH     0.1166 ****
4018 HC2    -8.632946  -21.760614   16.016534 H    619 MOH     0.0372 ****
4019 HC3    -8.030769  -23.430757   16.092195 H    619 MOH     0.0372 ****
4020 O1     -9.873094  -23.126204   16.973250 O    619 MOH    -0.6497 ****
4021 HO1    -9.672176  -24.017818   17.265992 H    619 MOH     0.4215 ****
4022 HC1   -13.359135  -33.386300   13.989259 H    620 MOH     0.0372 ****
4023 C1    -14.207840  -32.951516   14.517468 C    620 MOH     0.1166 ****
4024 HC2   -14.344094  -31.924363   14.179471 H    620 MOH     0.0372 ****
4025 HC3   -14.043295  -32.963763   15.595099 H    620 MOH     0.0372 ****
4026 O1    -15.373510  -33.649620   14.183714 O    620 MOH    -0.6497 ****
4027 HO1   -15.346374  -34.450195   14.713337 H    620 MOH     0.4215 ****
4028 HC1    -5.282582  -24.615902   10.369580 H    621 MOH     0.0372 ****
4029 C1     -5.477149  -23.874523   11.144569 C    621 MOH     0.1166 ****
4030 HC2    -6.541205  -23.832474   11.377207 H    621 MOH     0.0372 ****
4031 HC3    -5.175772  -22.886154   10.797379 H    621 MOH     0.0372 ****
4032 O1     -4.807423  -24.204796   12.355843 O    621 MOH    -0.6497 ****
4033 HO1    -5.025084  -25.099268   12.628079 H    621 MOH     0.4215 ****
4034 HC1   -21.168952  -19.903084   16.836778 H    622 MOH     0.0372 ****
4035 C1    -20.565044  -19.351540   17.557320 C    622 MOH     0.1166 ****
4036 HC2   -19.753289  -19.986775   17.910873 H    622 MOH     0.0372 ****
4037 HC3   -21.213408  -19.065767   18.386049 H    622 MOH     0.0372 ****
4038 O1    -20.060439  -18.227633   16.901832 O    622 MOH    -0.6497 ****
4039 HO1   -19.247530  -17.965946   17.340945 H    622 MOH     0.4215 ****
4040 HC1   -14.464760  -26.310541    4.375435 H    623 MOH     0.0372 ****
4041 C1    -15.256885  -26.842897    4.901523 C    623 MOH     0.1166 ****
4042 HC2   -15.229750  -26.585292    5.960062 H    623 MOH     0.0372 ****
4043 HC3   -15.091186  -27.910466    4.759394 H    623 MOH     0.0372 ****
4044 O1    -16.485486  -26.427300    4.345737 O    623 MOH    -0.6497 ****
4045 HO1   -17.180039  -26.786150    4.903644 H    623 MOH     0.4215 ****
4046 HC1   -13.768476  -18.419510    3.256085 H    624 MOH     0.0372 ****
4047 C1    -13.230963  -18.076989    2.371495 C    624 MOH     0.1166 ****
4048 HC2   -13.558898  -18.650986    1.504582 H    624 MOH     0.0372 ****
4049 HC3   -12.171525  -18.261518    2.549686 H    624 MOH     0.0372 ****
4050 O1    -13.491348  -16.696294    2.102794 O    624 MOH    -0.6497 ****
4051 HO1   -13.232118  -16.491353    1.201940 H    624 MOH     0.4215 ****
4052 HC1   -10.399637  -20.251728   11.898344 H    625 MOH     0.0372 ****
4053 C1    -10.351140  -21.339301   11.847433 C    625 MOH     0.1166 ****
4054 HC2   -10.729304  -21.694069   10.889303 H    625 MOH     0.0372 ****
4055 HC3   -10.957935  -21.785925   12.635150 H    625 MOH     0.0372 ****
4056 O1     -9.014574  -21.773678   11.920972 O    625 MOH    -0.6497 ****
4057 HO1    -9.046906  -22.733061   11.942185 H    625 MOH     0.4215 ****
4058 HC1   -19.309884  -21.276431    6.324929 H    626 MOH     0.0372 ****
4059 C1    -19.264273  -21.731220    5.334979 C    626 MOH     0.1166 ****
4060 HC2   -18.346864  -22.310116    5.226085 H    626 MOH     0.0372 ****
4061 HC3   -19.274666  -20.953507    4.572011 H    626 MOH     0.0372 ****
4062 O1    -20.367590  -22.567721    5.117897 O    626 MOH    -0.6497 ****
4063 HO1   -20.108359  -23.455252    5.375284 H    626 MOH     0.4215 ****
4064 HC1   -11.202731  -25.833299    4.820206 H    627 MOH     0.0372 ****
4065 C1    -11.004123  -24.872690    5.294674 C    627 MOH     0.1166 ****
4066 HC2    -9.939489  -24.655502    5.211236 H    627 MOH     0.0372 ****
4067 HC3   -11.233331  -24.907800    6.359577 H    627 MOH     0.0372 ****
4068 O1    -11.797402  -23.876973    4.643429 O    627 MOH    -0.6497 ****
4069 HO1   -11.750060  -23.100893    5.206993 H    627 MOH     0.4215 ****
4070 HC1   -25.627828  -27.120097   13.265889 H    628 MOH     0.0372 ****
4071 C1    -24.713305  -26.813911   12.758186 C    628 MOH     0.1166 ****
4072 HC2   -24.118057  -26.159489   13.395289 H    628 MOH     0.0372 ****
4073 HC3   -24.988701  -26.267675   11.855918 H    628 MOH     0.0372 ****
4074 O1    -24.011247  -27.953332   12.360085 O    628 MOH    -0.6497 ****
4075 HO1   -23.076517  -27.754515   12.449888 H    628 MOH     0.4215 ****
4076 HC1   -12.361474  -31.300560    9.832178 H    629 MOH     0.0372 ****
4077 C1    -12.314131  -30.577144   10.646765 C    629 MOH     0.1166 ****
4078 HC2   -13.107410  -29.849645   10.475646 H    629 MOH     0.0372 ****
4079 HC3   -11.353420  -30.063567   10.600096 H    629 MOH     0.0372 ****
4080 O1    -12.499460  -31.218910   11.940771 O    629 MOH    -0.6497 ****
4081 HO1   -12.691141  -30.543259   12.596259 H    629 MOH     0.4215 ****
4082 HC1    -5.603589  -22.586092   14.151187 H    630 MOH     0.0372 ****
4083 C1     -5.521028  -21.646304   14.697073 C    630 MOH     0.1166 ****
4084 HC2    -6.347793  -20.990657   14.424130 H    630 MOH     0.0372 ****
4085 HC3    -4.563781  -21.184167   14.452414 H    630 MOH     0.0372 ****
4086 O1     -5.562019  -22.004338   16.038455 O    630 MOH    -0.6497 ****
4087 HO1    -5.338008  -21.261326   16.602726 H    630 MOH     0.4215 ****
4088 HC1   -17.696190  -17.961863   13.894507 H    631 MOH     0.0372 ****
4089 C1    -18.361875  -17.102909   13.979360 C    631 MOH     0.1166 ****
4090 HC2   -19.403992  -17.422975   13.972289 H    631 MOH     0.0372 ****
4091 HC3   -18.226775  -16.478289   13.096890 H    631 MOH     0.0372 ****
4092 O1    -18.136131  -16.306008   15.182855 O    631 MOH    -0.6497 ****
4093 HO1   -18.208877  -16.873065   15.952895 H    631 MOH     0.4215 ****
4094 HC1   -25.372639  -25.348300    8.796974 H    632 MOH     0.0372 ****
4095 C1    -25.913039  -24.478731    8.423622 C    632 MOH     0.1166 ****
4096 HC2   -26.356444  -24.808187    7.483877 H    632 MOH     0.0372 ****
4097 HC3   -25.190196  -23.675706    8.277250 H    632 MOH     0.0372 ****
4098 O1    -26.904349  -24.140293    9.417107 O    632 MOH    -0.6497 ****
4099 HO1   -27.540012  -24.854319    9.499838 H    632 MOH     0.4215 ****
4100 HC1   -10.815907  -33.963563   10.436755 H    633 MOH     0.0372 ****
4101 C1    -11.496025  -34.532253   11.071030 C    633 MOH     0.1166 ****
4102 HC2   -11.141532  -34.495103   12.101284 H    633 MOH     0.0372 ****
4103 HC3   -11.550874  -35.568796   10.739397 H    633 MOH     0.0372 ****
4104 O1    -12.728668  -33.909266   10.989005 O    633 MOH    -0.6497 ****
4105 HO1   -12.626477  -33.016427   11.324881 H    633 MOH     0.4215 ****
4106 HC1   -20.755569  -13.707916   16.628182 H    634 MOH     0.0372 ****
4107 C1    -21.209944  -13.409895   15.683487 C    634 MOH     0.1166 ****
4108 HC2   -22.290743  -13.544617   15.731570 H    634 MOH     0.0372 ****
4109 HC3   -20.787323  -14.034515   14.895770 H    634 MOH     0.0372 ****
4110 O1    -20.928197  -12.052469   15.423979 O    634 MOH    -0.6497 ****
4111 HO1   -21.197819  -11.858143   14.523125 H    634 MOH     0.4215 ****
4112 HC1   -19.714607  -10.794248   19.751472 H    635 MOH     0.0372 ****
4113 C1    -20.056398  -11.463775   18.962341 C    635 MOH     0.1166 ****
4114 HC2   -20.554651  -12.339876   19.378120 H    635 MOH     0.0372 ****
4115 HC3   -19.184022  -11.781801   18.391706 H    635 MOH     0.0372 ****
4116 O1    -20.837553  -10.733827   18.040274 O    635 MOH    -0.6497 ****
4117 HO1   -20.810417  -11.220867   17.213666 H    635 MOH     0.4215 ****
4118 HC1   -16.947944  -27.500176   15.420443 H    636 MOH     0.0372 ****
4119 C1    -17.088240  -27.654494   14.351298 C    636 MOH     0.1166 ****
4120 HC2   -17.284539  -26.700010   13.861980 H    636 MOH     0.0372 ****
4121 HC3   -17.922511  -28.333411   14.175228 H    636 MOH     0.0372 ****
4122 O1    -15.912755  -28.208895   13.799755 O    636 MOH    -0.6497 ****
4123 HO1   -15.266123  -28.309733   14.501912 H    636 MOH     0.4215 ****
4124 HC1   -14.184746  -19.463809   16.710913 H    637 MOH     0.0372 ****
4125 C1    -13.702081  -20.429724   16.563835 C    637 MOH     0.1166 ****
4126 HC2   -14.475153  -21.183759   16.416050 H    637 MOH     0.0372 ****
4127 HC3   -13.137432  -20.672224   17.463275 H    637 MOH     0.0372 ****
4128 O1    -12.793909  -20.401963   15.440949 O    637 MOH    -0.6497 ****
4129 HO1   -12.082613  -19.797756   15.670052 H    637 MOH     0.4215 ****
4130 HC1   -19.491749  -27.706342    8.051683 H    638 MOH     0.0372 ****
4131 C1    -19.652830  -28.719206    8.420086 C    638 MOH     0.1166 ****
4132 HC2   -20.403963  -28.674298    9.207803 H    638 MOH     0.0372 ****
4133 HC3   -18.727915  -29.119697    8.835158 H    638 MOH     0.0372 ****
4134 O1    -20.104318  -29.565913    7.363669 O    638 MOH    -0.6497 ****
4135 HO1   -19.699595  -30.424051    7.513575 H    638 MOH     0.4215 ****
4136 HC1   -15.690475  -14.662401    7.838844 H    639 MOH     0.0372 ****
4137 C1    -16.271290  -14.281097    8.678887 C    639 MOH     0.1166 ****
4138 HC2   -15.973954  -13.273948    8.970922 H    639 MOH     0.0372 ****
4139 HC3   -16.063443  -14.936335    9.525294 H    639 MOH     0.0372 ****
4140 O1    -17.650579  -14.324779    8.393923 O    639 MOH    -0.6497 ****
4141 HO1   -18.055879  -14.999614    8.943345 H    639 MOH     0.4215 ****
4142 HC1   -10.892694  -27.451187   14.484234 H    640 MOH     0.0372 ****
4143 C1    -10.909438  -28.458335   14.066334 C    640 MOH     0.1166 ****
4144 HC2   -10.407720  -29.116840   14.774148 H    640 MOH     0.0372 ****
4145 HC3   -10.358068  -28.486912   13.125882 H    640 MOH     0.0372 ****
4146 O1    -12.252354  -28.893936   13.917134 O    640 MOH    -0.6497 ****
4147 HO1   -12.744257  -28.633065   14.699902 H    640 MOH     0.4215 ****
4148 HC1   -16.757996  -23.660193   13.615907 H    641 MOH     0.0372 ****
4149 C1    -17.821475  -23.459335   13.484385 C    641 MOH     0.1166 ****
4150 HC2   -18.403444  -24.380343   13.511255 H    641 MOH     0.0372 ****
4151 HC3   -17.986597  -22.988624   12.514941 H    641 MOH     0.0372 ****
4152 O1    -18.271808  -22.568945   14.463728 O    641 MOH    -0.6497 ****
4153 HO1   -18.161534  -21.674473   14.133509 H    641 MOH     0.4215 ****
4154 HC1   -13.045056  -20.732644   10.819299 H    642 MOH     0.0372 ****
4155 C1    -13.449201  -20.386858    9.868241 C    642 MOH     0.1166 ****
4156 HC2   -14.382199  -20.910232    9.656109 H    642 MOH     0.0372 ****
4157 HC3   -12.728091  -20.531786    9.064260 H    642 MOH     0.0372 ****
4158 O1    -13.695730  -19.020859   10.022390 O    642 MOH    -0.6497 ****
4159 HO1   -12.871274  -18.565254   10.210481 H    642 MOH     0.4215 ****
4160 HC1   -17.847456  -20.060668    8.355739 H    643 MOH     0.0372 ****
4161 C1    -18.084747  -20.347258    9.381044 C    643 MOH     0.1166 ****
4162 HC2   -17.322644  -21.009845    9.790459 H    643 MOH     0.0372 ****
4163 HC3   -19.037952  -20.875940    9.361952 H    643 MOH     0.0372 ****
4164 O1    -18.186360  -19.220901   10.218966 O    643 MOH    -0.6497 ****
4165 HO1   -17.412711  -18.664459   10.099465 H    643 MOH     0.4215 ****
4166 HC1   -10.805515  -18.845313    9.152649 H    644 MOH     0.0372 ****
4167 C1    -10.385204  -17.961863    9.633481 C    644 MOH     0.1166 ****
4168 HC2   -10.131747  -17.220076    8.876170 H    644 MOH     0.0372 ****
4169 HC3    -9.498394  -18.244779   10.199874 H    644 MOH     0.0372 ****
4170 O1    -11.390370  -17.465433   10.456554 O    644 MOH    -0.6497 ****
4171 HO1   -11.034145  -17.269066   11.325588 H    644 MOH     0.4215 ****
4172 HC1   -16.454310  -16.537485   21.728543 H    645 MOH     0.0372 ****
4173 C1    -16.497034  -15.663425   21.078712 C    645 MOH     0.1166 ****
4174 HC2   -15.696249  -14.963279   21.317007 H    645 MOH     0.0372 ****
4175 HC3   -17.436382  -15.147399   21.273873 H    645 MOH     0.0372 ****
4176 O1    -16.496456  -16.017785   19.687126 O    645 MOH    -0.6497 ****
4177 HO1   -16.387337  -15.225375   19.156088 H    645 MOH     0.4215 ****
4178 HC1   -22.140632  -20.806946   10.342709 H    646 MOH     0.0372 ****
4179 C1    -22.723179  -21.679780   10.638280 C    646 MOH     0.1166 ****
4180 HC2   -22.387161  -22.594665   10.151083 H    646 MOH     0.0372 ****
4181 HC3   -23.743357  -21.499743   10.300990 H    646 MOH     0.0372 ****
4182 O1    -22.730107  -21.826750   12.041180 O    646 MOH    -0.6497 ****
4183 HO1   -22.916591  -20.964938   12.422310 H    646 MOH     0.4215 ****
4184 HC1   -22.971439  -23.821451   14.613634 H    647 MOH     0.0372 ****
4185 C1    -21.939715  -24.105184   14.407866 C    647 MOH     0.1166 ****
4186 HC2   -21.668937  -24.931070   15.064769 H    647 MOH     0.0372 ****
4187 HC3   -21.291350  -23.254394   14.618584 H    647 MOH     0.0372 ****
4188 O1    -21.801728  -24.424434   13.045979 O    647 MOH    -0.6497 ****
4189 HO1   -22.098486  -23.631616   12.593430 H    647 MOH     0.4215 ****
4190 HC1   -17.477374  -24.548949    8.927082 H    648 MOH     0.0372 ****
4191 C1    -17.462940  -23.841455    8.097645 C    648 MOH     0.1166 ****
4192 HC2   -18.453674  -23.410345    7.956224 H    648 MOH     0.0372 ****
4193 HC3   -17.124036  -24.334619    7.186892 H    648 MOH     0.0372 ****
4194 O1    -16.585945  -22.789808    8.404530 O    648 MOH    -0.6497 ****
4195 HO1   -16.389646  -22.782867    9.344275 H    648 MOH     0.4215 ****
4196 HC1   -23.681003  -20.066791   15.810766 H    649 MOH     0.0372 ****
4197 C1    -23.920603  -20.699576   16.664951 C    649 MOH     0.1166 ****
4198 HC2   -24.966185  -20.575061   16.945672 H    649 MOH     0.0372 ****
4199 HC3   -23.288405  -20.392165   17.498630 H    649 MOH     0.0372 ****
4200 O1    -23.618649  -22.049653   16.348874 O    649 MOH    -0.6497 ****
4201 HO1   -24.081107  -22.322771   15.553379 H    649 MOH     0.4215 ****
4202 HC1   -26.274460  -28.005179    6.711009 H    650 MOH     0.0372 ****
4203 C1    -25.486377  -27.970887    5.958647 C    650 MOH     0.1166 ****
4204 HC2   -25.906688  -27.579377    5.031630 H    650 MOH     0.0372 ****
4205 HC3   -25.088583  -28.968645    5.771971 H    650 MOH     0.0372 ****
4206 O1    -24.480056  -27.070699    6.308665 O    650 MOH    -0.6497 ****
4207 HO1   -23.652713  -27.535694    6.165123 H    650 MOH     0.4215 ****
4208 HC1   -23.070744  -28.625717    3.992891 H    651 MOH     0.0372 ****
4209 C1    -22.640618  -29.195632    4.817377 C    651 MOH     0.1166 ****
4210 HC2   -21.865236  -29.839439    4.402305 H    651 MOH     0.0372 ****
4211 HC3   -23.385977  -29.844338    5.277704 H    651 MOH     0.0372 ****
4212 O1    -22.071350  -28.301160    5.757122 O    651 MOH    -0.6497 ****
4213 HO1   -21.656813  -28.840455    6.433823 H    651 MOH     0.4215 ****
4214 HC1   -12.723472  -19.910432    6.278260 H    652 MOH     0.0372 ****
4215 C1    -11.979845  -20.431357    5.675805 C    652 MOH     0.1166 ****
4216 HC2   -11.064167  -19.841847    5.627721 H    652 MOH     0.0372 ****
4217 HC3   -12.315863  -20.552607    4.645550 H    652 MOH     0.0372 ****
4218 O1    -11.641518  -21.660185    6.259875 O    652 MOH    -0.6497 ****
4219 HO1   -12.345308  -21.931670    6.853138 H    652 MOH     0.4215 ****
4220 HC1   -12.007558  -25.587533   10.938093 H    653 MOH     0.0372 ****
4221 C1    -12.046818  -26.657144   10.733032 C    653 MOH     0.1166 ****
4222 HC2   -12.825086  -27.085396   11.364479 H    653 MOH     0.0372 ****
4223 HC3   -11.078024  -27.093561   10.976984 H    653 MOH     0.0372 ****
4224 O1    -12.335493  -26.949041    9.364781 O    653 MOH    -0.6497 ****
4225 HO1   -11.905944  -27.763496    9.092545 H    653 MOH     0.4215 ****
4226 HC1    -7.846017  -26.907400    8.691615 H    654 MOH     0.0372 ****
4227 C1     -8.368519  -25.978227    8.919304 C    654 MOH     0.1166 ****
4228 HC2    -9.400821  -26.191332    9.197904 H    654 MOH     0.0372 ****
4229 HC3    -8.328105  -25.331970    8.043198 H    654 MOH     0.0372 ****
4230 O1     -7.680895  -25.414844    9.985621 O    654 MOH    -0.6497 ****
4231 HO1    -7.218437  -26.130095   10.428269 H    654 MOH     0.4215 ****
4232 HC1   -12.972887  -24.762872    8.310485 H    655 MOH     0.0372 ****
4233 C1    -13.909927  -24.506900    7.817631 C    655 MOH     0.1166 ****
4234 HC2   -14.748240  -24.838806    8.430693 H    655 MOH     0.0372 ****
4235 HC3   -13.928402  -25.005779    6.848895 H    655 MOH     0.0372 ****
4236 O1    -13.940526  -23.123346    7.600549 O    655 MOH    -0.6497 ****
4237 HO1   -14.856781  -22.882072    7.448521 H    655 MOH     0.4215 ****
4238 HC1   -16.302466  -29.472832    6.602822 H    656 MOH     0.0372 ****
4239 C1    -15.997048  -30.453036    6.235833 C    656 MOH     0.1166 ****
4240 HC2   -15.047884  -30.373428    5.706210 H    656 MOH     0.0372 ****
4241 HC3   -16.763769  -30.845363    5.569032 H    656 MOH     0.0372 ****
4242 O1    -15.843473  -31.373636    7.309929 O    656 MOH    -0.6497 ****
4243 HO1   -14.994191  -31.807604    7.201741 H    656 MOH     0.4215 ****
4244 HC1   -10.461414  -32.121139   13.275789 H    657 MOH     0.0372 ****
4245 C1     -9.590192  -31.617769   12.856474 C    657 MOH     0.1166 ****
4246 HC2    -9.888105  -30.668591   12.413118 H    657 MOH     0.0372 ****
4247 HC3    -9.151406  -32.229325   12.067343 H    657 MOH     0.0372 ****
4248 O1     -8.621398  -31.342609   13.842181 O    657 MOH    -0.6497 ****
4249 HO1    -8.191273  -32.180743   14.025322 H    657 MOH     0.4215 ****
4250 HC1   -27.175704  -18.228858   15.976229 H    658 MOH     0.0372 ****
4251 C1    -26.313143  -17.765904   15.496811 C    658 MOH     0.1166 ****
4252 HC2   -25.526214  -17.651186   16.242808 H    658 MOH     0.0372 ****
4253 HC3   -26.630108  -16.773861   15.174370 H    658 MOH     0.0372 ****
4254 O1    -25.930360  -18.553415   14.337863 O    658 MOH    -0.6497 ****
4255 HO1   -26.624335  -18.507283   13.676718 H    658 MOH     0.4215 ****
4256 HC1   -19.016590  -25.797373    1.527916 H    659 MOH     0.0372 ****
4257 C1    -18.092830  -25.609170    0.979909 C    659 MOH     0.1166 ****
4258 HC2   -17.502200  -26.524055    1.017385 H    659 MOH     0.0372 ****
4259 HC3   -17.570328  -24.785734    1.467105 H    659 MOH     0.0372 ****
4260 O1    -18.365916  -25.256852   -0.374201 O    659 MOH    -0.6497 ****
4261 HO1   -17.584184  -24.834723   -0.737654 H    659 MOH     0.4215 ****
4262 HC1   -14.908743  -16.541567   11.549034 H    660 MOH     0.0372 ****
4263 C1    -15.923725  -16.924913   11.445089 C    660 MOH     0.1166 ****
4264 HC2   -16.644835  -16.107600   11.466302 H    660 MOH     0.0372 ****
4265 HC3   -16.158706  -17.619751   12.251191 H    660 MOH     0.0372 ****
4266 O1    -16.051319  -17.636898   10.262806 O    660 MOH    -0.6497 ****
4267 HO1   -15.330786  -18.270091   10.230987 H    660 MOH     0.4215 ****
4268 HC1   -21.429914  -30.535502   12.438574 H    661 MOH     0.0372 ****
4269 C1    -20.573126  -30.793515   11.814906 C    661 MOH     0.1166 ****
4270 HC2   -20.387220  -30.000289   11.091536 H    661 MOH     0.0372 ****
4271 HC3   -20.819078  -31.697377   11.257706 H    661 MOH     0.0372 ****
4272 O1    -19.409766  -30.984167   12.616058 O    661 MOH    -0.6497 ****
4273 HO1   -18.713481  -31.331995   12.054615 H    661 MOH     0.4215 ****
4274 HC1   -15.375242  -30.875573   11.621866 H    662 MOH     0.0372 ****
4275 C1    -15.873495  -31.651245   11.042038 C    662 MOH     0.1166 ****
4276 HC2   -15.146611  -32.396706   10.719597 H    662 MOH     0.0372 ****
4277 HC3   -16.335953  -31.177269   10.175832 H    662 MOH     0.0372 ****
4278 O1    -16.848640  -32.281989   11.838947 O    662 MOH    -0.6497 ****
4279 HO1   -16.376945  -32.651045   12.588481 H    662 MOH     0.4215 ****
4280 HC1   -12.034693  -24.823700   18.808899 H    663 MOH     0.0372 ****
4281 C1    -12.657077  -23.929228   18.799707 C    663 MOH     0.1166 ****
4282 HC2   -12.213095  -23.142126   19.409233 H    663 MOH     0.0372 ****
4283 HC3   -13.628757  -24.207246   19.209121 H    663 MOH     0.0372 ****
4284 O1    -12.836633  -23.476481   17.478124 O    663 MOH    -0.6497 ****
4285 HO1   -11.979268  -23.200914   17.145077 H    663 MOH     0.4215 ****
4286 HC1   -16.050742  -19.176810    7.328313 H    664 MOH     0.0372 ****
4287 C1    -15.457803  -19.515248    6.479078 C    664 MOH     0.1166 ****
4288 HC2   -15.090608  -20.510966    6.727272 H    664 MOH     0.0372 ****
4289 HC3   -14.610830  -18.845313    6.327050 H    664 MOH     0.0372 ****
4290 O1    -16.262052  -19.566279    5.308816 O    664 MOH    -0.6497 ****
4291 HO1   -15.855020  -20.216619    4.731110 H    664 MOH     0.4215 ****
4292 HC1   -20.294266  -18.855927   12.990824 H    665 MOH     0.0372 ****
4293 C1    -20.112978  -19.894102   13.270131 C    665 MOH     0.1166 ****
4294 HC2   -20.772312  -20.531378   12.681112 H    665 MOH     0.0372 ****
4295 HC3   -20.337568  -20.048828   14.325842 H    665 MOH     0.0372 ****
4296 O1    -18.782763  -20.289695   13.029008 O    665 MOH    -0.6497 ****
4297 HO1   -18.603207  -20.181509   12.092092 H    665 MOH     0.4215 ****
4298 HC1   -16.405812  -24.644071   16.649395 H    666 MOH     0.0372 ****
4299 C1    -15.952015  -23.764704   17.106186 C    666 MOH     0.1166 ****
4300 HC2   -15.114857  -23.447904   16.483932 H    666 MOH     0.0372 ****
4301 HC3   -15.648329  -24.013736   18.123005 H    666 MOH     0.0372 ****
4302 O1    -16.902333  -22.766946   17.070830 O    666 MOH    -0.6497 ****
4303 HO1   -17.230268  -22.711424   16.169976 H    666 MOH     0.4215 ****
4304 HC1   -24.573009  -13.171478   14.320185 H    667 MOH     0.0372 ****
4305 C1    -25.480604  -13.235165   14.919812 C    667 MOH     0.1166 ****
4306 HC2   -26.091440  -14.081871   14.607270 H    667 MOH     0.0372 ****
4307 HC3   -26.029664  -12.303134   14.787583 H    667 MOH     0.0372 ****
4308 O1    -25.108790  -13.418468   16.244223 O    667 MOH    -0.6497 ****
4309 HO1   -24.581669  -14.221084   16.242808 H    667 MOH     0.4215 ****
4310 HC1    -9.042864  -21.325013   22.026235 H    668 MOH     0.0372 ****
4311 C1     -9.295744  -20.460343   22.640004 C    668 MOH     0.1166 ****
4312 HC2    -8.488031  -20.277039   23.347817 H    668 MOH     0.0372 ****
4313 HC3   -10.213731  -20.693044   23.178819 H    668 MOH     0.0372 ****
4314 O1     -9.488001  -19.351949   21.783697 O    668 MOH    -0.6497 ****
4315 HO1   -10.173316  -19.623025   21.168514 H    668 MOH     0.4215 ****
4316 HC1   -12.783517  -28.584484   18.492115 H    669 MOH     0.0372 ****
4317 C1    -11.960792  -29.275240   18.306853 C    669 MOH     0.1166 ****
4318 HC2   -11.685396  -29.153990   17.259628 H    669 MOH     0.0372 ****
4319 HC3   -12.269098  -30.315048   18.413626 H    669 MOH     0.0372 ****
4320 O1    -10.870755  -28.964563   19.191444 O    669 MOH    -0.6497 ****
4321 HO1   -10.259919  -29.705125   19.204172 H    669 MOH     0.4215 ****
4322 HC1   -17.036279  -27.242980    9.296899 H    670 MOH     0.0372 ****
4323 C1    -16.109054  -27.419751    9.840664 C    670 MOH     0.1166 ****
4324 HC2   -16.174872  -28.344434   10.414127 H    670 MOH     0.0372 ****
4325 HC3   -15.885620  -26.583251   10.503223 H    670 MOH     0.0372 ****
4326 O1    -15.105619  -27.521813    8.910111 O    670 MOH    -0.6497 ****
4327 HO1   -14.295597  -27.180926    9.296899 H    670 MOH     0.4215 ****
4328 HC1   -19.133215  -27.098868    4.024003 H    671 MOH     0.0372 ****
4329 C1    -18.853200  -28.007221    4.557869 C    671 MOH     0.1166 ****
4330 HC2   -18.044909  -28.502834    4.020468 H    671 MOH     0.0372 ****
4331 HC3   -19.684007  -28.713082    4.581203 H    671 MOH     0.0372 ****
4332 O1    -18.415568  -27.745942    5.877330 O    671 MOH    -0.6497 ****
4333 HO1   -18.763133  -28.450578    6.428873 H    671 MOH     0.4215 ****
4334 HC1    -7.949363  -27.626733   17.427212 H    672 MOH     0.0372 ****
4335 C1     -8.780747  -26.943326   17.257507 C    672 MOH     0.1166 ****
4336 HC2    -9.702776  -27.403421   17.614596 H    672 MOH     0.0372 ****
4337 HC3    -8.851184  -26.755123   16.186240 H    672 MOH     0.0372 ****
4338 O1     -8.452812  -25.722663   17.909459 O    672 MOH    -0.6497 ****
4339 HO1    -7.839666  -25.919847   18.621516 H    672 MOH     0.4215 ****
4340 HC1    -8.189540  -24.800430   13.449737 H    673 MOH     0.0372 ****
4341 C1     -9.199326  -25.121314   13.193764 C    673 MOH     0.1166 ****
4342 HC2    -9.896765  -24.690612   13.912892 H    673 MOH     0.0372 ****
4343 HC3    -9.280732  -26.207662   13.228412 H    673 MOH     0.0372 ****
4344 O1     -9.554397  -24.662034   11.921679 O    673 MOH    -0.6497 ****
4345 HO1    -8.955684  -25.069466   11.292354 H    673 MOH     0.4215 ****
4346 HC1   -12.386300  -17.692011   14.723943 H    674 MOH     0.0372 ****
4347 C1    -12.878779  -17.255594   13.854909 C    674 MOH     0.1166 ****
4348 HC2   -13.821015  -16.768145   14.105225 H    674 MOH     0.0372 ****
4349 HC3   -13.131081  -18.090053   13.200128 H    674 MOH     0.0372 ****
4350 O1    -12.041044  -16.330503   13.154873 O    674 MOH    -0.6497 ****
4351 HO1   -12.582021  -15.630766   12.782935 H    674 MOH     0.4215 ****
4352 HC1    -6.045262  -29.091936   12.384834 H    675 MOH     0.0372 ****
4353 C1     -6.951124  -28.767379   11.873596 C    675 MOH     0.1166 ****
4354 HC2    -7.836779  -29.160114   12.372813 H    675 MOH     0.0372 ****
4355 HC3    -6.943619  -29.115615   10.840513 H    675 MOH     0.0372 ****
4356 O1     -7.044078  -27.375252   11.887738 O    675 MOH    -0.6497 ****
4357 HO1    -6.773878  -27.089887   12.763843 H    675 MOH     0.4215 ****
4358 HC1   -13.510978  -24.528129   14.369683 H    676 MOH     0.0372 ****
4359 C1    -12.847602  -25.349933   14.639090 C    676 MOH     0.1166 ****
4360 HC2   -11.831466  -24.963730   14.716872 H    676 MOH     0.0372 ****
4361 HC3   -12.861459  -26.132545   13.880365 H    676 MOH     0.0372 ****
4362 O1    -13.225767  -25.776960   15.926025 O    676 MOH    -0.6497 ****
4363 HO1   -13.172073  -25.007820   16.497367 H    676 MOH     0.4215 ****
4364 HC1    -9.731066  -18.328878   18.473023 H    677 MOH     0.0372 ****
4365 C1    -10.070548  -19.074748   17.753896 C    677 MOH     0.1166 ****
4366 HC2   -10.576884  -19.912065   18.235435 H    677 MOH     0.0372 ****
4367 HC3    -9.183738  -19.471565   17.258921 H    677 MOH     0.0372 ****
4368 O1    -10.911747  -18.454211   16.799302 O    677 MOH    -0.6497 ****
4369 HO1   -10.382317  -17.769170   16.383523 H    677 MOH     0.4215 ****
4370 HC1   -19.024673  -25.565079    9.492060 H    678 MOH     0.0372 ****
4371 C1    -19.655139  -25.878614   10.323618 C    678 MOH     0.1166 ****
4372 HC2   -20.631439  -26.191332    9.953094 H    678 MOH     0.0372 ****
4373 HC3   -19.825458  -25.051503   11.013754 H    678 MOH     0.0372 ****
4374 O1    -19.052963  -26.932711   11.019411 O    678 MOH    -0.6497 ****
4375 HO1   -19.703637  -27.287071   11.628937 H    678 MOH     0.4215 ****
4376 HC1   -16.362511  -20.832665   12.635857 H    679 MOH     0.0372 ****
4377 C1    -15.706064  -20.557098   13.461050 C    679 MOH     0.1166 ****
4378 HC2   -16.252814  -20.593023   14.404331 H    679 MOH     0.0372 ****
4379 HC3   -15.359653  -19.534436   13.310437 H    679 MOH     0.0372 ****
4380 O1    -14.587159  -21.429116   13.526104 O    679 MOH    -0.6497 ****
4381 HO1   -13.982096  -21.102517   14.196441 H    679 MOH     0.4215 ****
4382 HC1   -12.586063  -16.117806   20.403425 H    680 MOH     0.0372 ****
4383 C1    -12.897832  -16.536668   21.360847 C    680 MOH     0.1166 ****
4384 HC2   -13.424953  -15.790391   21.953403 H    680 MOH     0.0372 ****
4385 HC3   -12.005248  -16.870207   21.889056 H    680 MOH     0.0372 ****
4386 O1    -13.712473  -17.650778   21.133866 O    680 MOH    -0.6497 ****
4387 HO1   -14.398365  -17.409503   20.508077 H    680 MOH     0.4215 ****
4388 HC1   -19.906287  -10.723621   12.683940 H    681 MOH     0.0372 ****
4389 C1    -20.813881  -10.343950   12.214421 C    681 MOH     0.1166 ****
4390 HC2   -20.683400  -10.363954   11.131841 H    681 MOH     0.0372 ****
4391 HC3   -20.957064   -9.313123   12.536155 H    681 MOH     0.0372 ****
4392 O1    -21.954148  -11.137177   12.588480 O    681 MOH    -0.6497 ****
4393 HO1   -22.727220  -10.632173   12.326144 H    681 MOH     0.4215 ****
4394 HC1   -17.748729  -19.193548   19.195686 H    682 MOH     0.0372 ****
4395 C1    -17.166760  -18.951049   18.306146 C    682 MOH     0.1166 ****
4396 HC2   -17.203133  -19.772853   17.591261 H    682 MOH     0.0372 ****
4397 HC3   -16.139654  -18.807754   18.643436 H    682 MOH     0.0372 ****
4398 O1    -17.632682  -17.706708   17.774402 O    682 MOH    -0.6497 ****
4399 HO1   -17.216989  -17.029424   18.312510 H    682 MOH     0.4215 ****
4400 HC1   -20.254429  -23.759805   16.867184 H    683 MOH     0.0372 ****
4401 C1    -20.091616  -23.983934   17.921480 C    683 MOH     0.1166 ****
4402 HC2   -19.524081  -24.910657   18.013404 H    683 MOH     0.0372 ****
4403 HC3   -21.075421  -24.101509   18.375442 H    683 MOH     0.0372 ****
4404 O1    -19.398796  -22.907383   18.513328 O    683 MOH    -0.6497 ****
4405 HO1   -18.560483  -22.816752   18.055123 H    683 MOH     0.4215 ****
4406 HC1   -20.532134  -23.864725    7.531253 H    684 MOH     0.0372 ****
4407 C1    -20.665502  -24.887387    7.178407 C    684 MOH     0.1166 ****
4408 HC2   -21.664318  -24.964954    6.749900 H    684 MOH     0.0372 ****
4409 HC3   -20.592179  -25.604271    7.995822 H    684 MOH     0.0372 ****
4410 O1    -19.745206  -25.164588    6.166537 O    684 MOH    -0.6497 ****
4411 HO1   -19.629159  -26.112540    6.074613 H    684 MOH     0.4215 ****
4412 HC1   -18.345132  -33.139310    6.488978 H    685 MOH     0.0372 ****
4413 C1    -19.081831  -32.793524    7.213762 C    685 MOH     0.1166 ****
4414 HC2   -19.352608  -33.601447    7.894706 H    685 MOH     0.0372 ****
4415 HC3   -19.990580  -32.493869    6.693331 H    685 MOH     0.0372 ****
4416 O1    -18.641890  -31.712074    8.007843 O    685 MOH    -0.6497 ****
4417 HO1   -17.694458  -31.780660    8.143607 H    685 MOH     0.4215 ****
4418 HC1   -17.396545  -16.584025    6.841117 H    686 MOH     0.0372 ****
4419 C1    -18.244095  -17.248654    7.010822 C    686 MOH     0.1166 ****
4420 HC2   -19.109543  -16.604846    7.167093 H    686 MOH     0.0372 ****
4421 HC3   -18.011423  -17.850411    7.889049 H    686 MOH     0.0372 ****
4422 O1    -18.377463  -17.950432    5.795306 O    686 MOH    -0.6497 ****
4423 HO1   -17.531645  -18.356231    5.590245 H    686 MOH     0.4215 ****
4424 HC1    -6.445365  -30.197881   16.821929 H    687 MOH     0.0372 ****
4425 C1     -6.061427  -29.601022   15.994614 C    687 MOH     0.1166 ****
4426 HC2    -5.373803  -30.218293   15.416201 H    687 MOH     0.0372 ****
4427 HC3    -5.560287  -28.739210   16.436556 H    687 MOH     0.0372 ****
4428 O1     -7.126639  -29.161339   15.207604 O    687 MOH    -0.6497 ****
4429 HO1    -7.656069  -29.917414   14.945975 H    687 MOH     0.4215 ****
4430 HC1   -28.030182  -21.894111   12.939913 H    688 MOH     0.0372 ****
4431 C1    -28.196459  -20.823684   13.058706 C    688 MOH     0.1166 ****
4432 HC2   -27.843121  -20.502801   14.038756 H    688 MOH     0.0372 ****
4433 HC3   -29.263403  -20.610578   12.986582 H    688 MOH     0.0372 ****
4434 O1    -27.509413  -20.109249   12.048958 O    688 MOH    -0.6497 ****
4435 HO1   -27.600057  -20.639156   11.254170 H    688 MOH     0.4215 ****
4436 HC1   -21.366983  -15.578101   10.090979 H    689 MOH     0.0372 ****
4437 C1    -20.495761  -16.233340   10.071887 C    689 MOH     0.1166 ****
4438 HC2   -20.496339  -16.804888    9.144163 H    689 MOH     0.0372 ****
4439 HC3   -20.523474  -16.942467   10.899910 H    689 MOH     0.0372 ****
4440 O1    -19.317390  -15.448687   10.145427 O    689 MOH    -0.6497 ****
4441 HO1   -19.346834  -14.937968   10.957892 H    689 MOH     0.4215 ****
4442 HC1    -6.553330  -24.741234   15.557622 H    690 MOH     0.0372 ****
4443 C1     -5.913048  -25.616519   15.666517 C    690 MOH     0.1166 ****
4444 HC2    -6.063159  -26.017418   16.669194 H    690 MOH     0.0372 ****
4445 HC3    -4.874395  -25.303800   15.560451 H    690 MOH     0.0372 ****
4446 O1     -6.292368  -26.558347   14.663132 O    690 MOH    -0.6497 ****
4447 HO1    -6.363382  -27.431591   15.055576 H    690 MOH     0.4215 ****
4448 HC1   -25.552195  -22.343184   12.616058 H    691 MOH     0.0372 ****
4449 C1    -25.284882  -23.347883   12.944862 C    691 MOH     0.1166 ****
4450 HC2   -24.340337  -23.637331   12.484536 H    691 MOH     0.0372 ****
4451 HC3   -26.047562  -24.061501   12.635150 H    691 MOH     0.0372 ****
4452 O1    -25.117450  -23.340126   14.373925 O    691 MOH    -0.6497 ****
4453 HO1   -25.945948  -23.152332   14.820817 H    691 MOH     0.4215 ****
4454 HC1    -8.417594  -22.527712   19.978454 H    692 MOH     0.0372 ****
4455 C1     -7.559074  -22.166004   19.412768 C    692 MOH     0.1166 ****
4456 HC2    -7.907216  -21.646712   18.520399 H    692 MOH     0.0372 ****
4457 HC3    -6.929762  -23.006587   19.119319 H    692 MOH     0.0372 ****
4458 O1     -6.809673  -21.276431   20.208263 O    692 MOH    -0.6497 ****
4459 HO1    -6.642242  -21.694886   21.056084 H    692 MOH     0.4215 ****
4460 HC1    -7.618541  -21.206621   10.046432 H    693 MOH     0.0372 ****
4461 C1     -8.065410  -20.792657    9.142749 C    693 MOH     0.1166 ****
4462 HC2    -9.093094  -20.473815    9.314576 H    693 MOH     0.0372 ****
4463 HC3    -8.034811  -21.565063    8.373417 H    693 MOH     0.0372 ****
4464 O1     -7.254810  -19.728354    8.754548 O    693 MOH    -0.6497 ****
4465 HO1    -7.072945  -19.182117    9.522466 H    693 MOH     0.4215 ****
4466 HC1   -14.392592  -23.458927    4.640600 H    694 MOH     0.0372 ****
4467 C1    -15.316929  -22.943717    4.378971 C    694 MOH     0.1166 ****
4468 HC2   -16.029957  -22.990666    5.202750 H    694 MOH     0.0372 ****
4469 HC3   -15.752829  -23.389933    3.485895 H    694 MOH     0.0372 ****
4470 O1    -15.079061  -21.594457    4.099664 O    694 MOH    -0.6497 ****
4471 HO1   -14.574457  -21.564246    3.283662 H    694 MOH     0.4215 ****
4472 HC1   -22.670640  -16.265592   14.692830 H    695 MOH     0.0372 ****
4473 C1    -23.041299  -16.662409   15.637525 C    695 MOH     0.1166 ****
4474 HC2   -22.186820  -16.785292   16.302912 H    695 MOH     0.0372 ****
4475 HC3   -23.512994  -17.638122   15.521559 H    695 MOH     0.0372 ****
4476 O1    -23.896355  -15.727112   16.199675 O    695 MOH    -0.6497 ****
4477 HO1   -23.711603  -15.725479   17.141541 H    695 MOH     0.4215 ****
4478 HC1   -22.672949  -14.851828   11.617623 H    696 MOH     0.0372 ****
4479 C1    -22.106569  -14.546866   12.497971 C    696 MOH     0.1166 ****
4480 HC2   -21.720899  -15.440522   12.989410 H    696 MOH     0.0372 ****
4481 HC3   -22.760707  -14.023084   13.194471 H    696 MOH     0.0372 ****
4482 O1    -21.011913  -13.732411   12.092799 O    696 MOH    -0.6497 ****
4483 HO1   -21.362942  -12.857127   11.916022 H    696 MOH     0.4215 ****
4484 HC1   -30.756430  -24.256644   11.014461 H    697 MOH     0.0372 ****
4485 C1    -30.197555  -23.624267   11.703890 C    697 MOH     0.1166 ****
4486 HC2   -30.152522  -22.623650   11.273262 H    697 MOH     0.0372 ****
4487 HC3   -29.184306  -24.018635   11.784500 H    697 MOH     0.0372 ****
4488 O1    -30.862663  -23.612020   12.992238 O    697 MOH    -0.6497 ****
4489 HO1   -30.395587  -24.230107   13.557924 H    697 MOH     0.4215 ****
4490 HC1   -20.551187  -28.606937   13.980067 H    698 MOH     0.0372 ****
4491 C1    -20.862956  -27.563455   13.944711 C    698 MOH     0.1166 ****
4492 HC2   -20.056975  -26.906175   14.272809 H    698 MOH     0.0372 ****
4493 HC3   -21.705888  -27.440164   14.623534 H    698 MOH     0.0372 ****
4494 O1    -21.316176  -27.217260   12.650706 O    698 MOH    -0.6497 ****
4495 HO1   -21.527486  -26.281555   12.680404 H    698 MOH     0.4215 ****
4496 HC1   -13.855079  -20.593432   21.477520 H    699 MOH     0.0372 ****
4497 C1    -12.929586  -20.293777   21.971080 C    699 MOH     0.1166 ****
4498 HC2   -12.485604  -21.147833   22.483026 H    699 MOH     0.0372 ****
4499 HC3   -13.175538  -19.541784   22.720614 H    699 MOH     0.0372 ****
4500 O1    -12.047395  -19.794490   20.945069 O    699 MOH    -0.6497 ****
4501 HO1   -12.237921  -18.856335   20.870115 H    699 MOH     0.4215 ****
4502 HC1   -15.438173  -16.724463   16.825464 H    700 MOH     0.0372 ****
4503 C1    -14.492473  -16.381534   17.245486 C    700 MOH     0.1166 ****
4504 HC2   -14.606211  -15.407045   17.721369 H    700 MOH     0.0372 ****
4505 HC3   -13.762703  -16.268041   16.443627 H    700 MOH     0.0372 ****
4506 O1    -14.050800  -17.303767   18.217758 O    700 MOH    -0.6497 ****
4507 HO1   -13.219416  -17.692011   17.935622 H    700 MOH     0.4215 ****
4508 HC1   -15.520157  -24.790224   11.896223 H    701 MOH     0.0372 ****
4509 C1    -14.738425  -24.117023   11.544791 C    701 MOH     0.1166 ****
4510 HC2   -14.178972  -24.551807   10.716769 H    701 MOH     0.0372 ****
4511 HC3   -14.053110  -23.912082   12.366449 H    701 MOH     0.0372 ****
4512 O1    -15.312311  -22.917589   11.099314 O    701 MOH    -0.6497 ****
4513 HO1   -15.117166  -22.274190   11.785207 H    701 MOH     0.4215 ****
4514 HC1   -10.620301   -2.049325   12.167752 H    702 MOH     0.0372 ****
4515 C1    -11.656644   -1.910520   12.474636 C    702 MOH     0.1166 ****
4516 HC2   -12.220138   -1.546363   11.616209 H    702 MOH     0.0372 ****
4517 HC3   -11.726504   -1.160568   13.263060 H    702 MOH     0.0372 ****
4518 O1    -12.182033   -3.153228   12.891829 O    702 MOH    -0.6497 ****
4519 HO1   -12.944713   -3.000951   13.453979 H    702 MOH     0.4215 ****
4520 HC1   -16.121871  -12.590296   16.259072 H    703 MOH     0.0372 ****
4521 C1    -16.922656  -12.984255   16.884861 C    703 MOH     0.1166 ****
4522 HC2   -17.488459  -13.714611   16.305741 H    703 MOH     0.0372 ****
4523 HC3   -17.595269  -12.207359   17.246193 H    703 MOH     0.0372 ****
4524 O1    -16.425558  -13.725226   17.929258 O    703 MOH    -0.6497 ****
4525 HO1   -15.881116  -13.129183   18.448274 H    703 MOH     0.4215 ****
4526 HC1    -4.012527  -11.351262   20.765463 H    704 MOH     0.0372 ****
4527 C1     -3.951328  -10.571508   21.523482 C    704 MOH     0.1166 ****
4528 HC2    -3.591061  -11.017315   22.451206 H    704 MOH     0.0372 ****
4529 HC3    -4.944370  -10.146113   21.669146 H    704 MOH     0.0372 ****
4530 O1     -3.080106   -9.548846   21.095682 O    704 MOH    -0.6497 ****
4531 HO1    -2.193296   -9.908921   21.029214 H    704 MOH     0.4215 ****
4532 HC1    -4.391268  -17.455799    7.352355 H    705 MOH     0.0372 ****
4533 C1     -4.578330  -18.441718    7.777326 C    705 MOH     0.1166 ****
4534 HC2    -4.970351  -18.347005    8.789903 H    705 MOH     0.0372 ****
4535 HC3    -3.621083  -18.958152    7.845916 H    705 MOH     0.0372 ****
4536 O1     -5.419529  -19.245559    6.928091 O    705 MOH    -0.6497 ****
4537 HO1    -6.135444  -19.591754    7.465492 H    705 MOH     0.4215 ****
4538 HC1    -1.760861  -16.983864   13.989259 H    706 MOH     0.0372 ****
4539 C1     -2.609566  -16.549079   14.517468 C    706 MOH     0.1166 ****
4540 HC2    -2.745820  -15.521927   14.179471 H    706 MOH     0.0372 ****
4541 HC3    -2.445021  -16.561327   15.595099 H    706 MOH     0.0372 ****
4542 O1     -3.775236  -17.247184   14.183714 O    706 MOH    -0.6497 ****
4543 HO1    -3.748100  -18.047759   14.713337 H    706 MOH     0.4215 ****
4544 HC1    -9.570678   -3.500647   16.836778 H    707 MOH     0.0372 ****
4545 C1     -8.966769   -2.949104   17.557320 C    707 MOH     0.1166 ****
4546 HC2    -8.155015   -3.584338   17.910873 H    707 MOH     0.0372 ****
4547 HC3    -9.615134   -2.663330   18.386049 H    707 MOH     0.0372 ****
4548 O1     -8.462165   -1.825196   16.901832 O    707 MOH    -0.6497 ****
4549 HO1    -7.649256   -1.563509   17.340945 H    707 MOH     0.4215 ****
4550 HC1    -2.866486   -9.908104    4.375435 H    708 MOH     0.0372 ****
4551 C1     -3.658611  -10.440460    4.901523 C    708 MOH     0.1166 ****
4552 HC2    -3.631476  -10.182855    5.960062 H    708 MOH     0.0372 ****
4553 HC3    -3.492911  -11.508029    4.759394 H    708 MOH     0.0372 ****
4554 O1     -4.887212  -10.024863    4.345737 O    708 MOH    -0.6497 ****
4555 HO1    -5.581765  -10.383714    4.903644 H    708 MOH     0.4215 ****
4556 HC1    -2.170202   -2.017073    3.256085 H    709 MOH     0.0372 ****
4557 C1     -1.632689   -1.674553    2.371495 C    709 MOH     0.1166 ****
4558 HC2    -1.960624   -2.248550    1.504582 H    709 MOH     0.0372 ****
4559 HC3    -0.573251   -1.859081    2.549686 H    709 MOH     0.0372 ****
4560 O1     -1.893074   -0.293857    2.102794 O    709 MOH    -0.6497 ****
4561 HO1    -1.633844   -0.088916    1.201940 H    709 MOH     0.4215 ****
4562 HC1   -11.508843   -8.822164   21.221547 H    710 MOH     0.0372 ****
4563 C1    -12.529021   -9.114878   21.469742 C    710 MOH     0.1166 ****
4564 HC2   -12.690101   -9.057315   22.545251 H    710 MOH     0.0372 ****
4565 HC3   -12.737444  -10.137132   21.152958 H    710 MOH     0.0372 ****
4566 O1    -13.415253   -8.222447   20.868701 O    710 MOH    -0.6497 ****
4567 HO1   -12.963765   -7.846042   20.109268 H    710 MOH     0.4215 ****
4568 HC1    -7.711610   -4.873995    6.324929 H    711 MOH     0.0372 ****
4569 C1     -7.665999   -5.328783    5.334979 C    711 MOH     0.1166 ****
4570 HC2    -6.748590   -5.907679    5.226085 H    711 MOH     0.0372 ****
4571 HC3    -7.676391   -4.551070    4.572011 H    711 MOH     0.0372 ****
4572 O1     -8.769316   -6.165284    5.117897 O    711 MOH    -0.6497 ****
4573 HO1    -8.510085   -7.052816    5.375284 H    711 MOH     0.4215 ****
4574 HC1   -16.909954   -6.035461   17.425798 H    712 MOH     0.0372 ****
4575 C1    -15.869569   -6.008108   17.099822 C    712 MOH     0.1166 ****
4576 HC2   -15.285291   -6.647833   17.762381 H    712 MOH     0.0372 ****
4577 HC3   -15.528355   -4.974424   17.153562 H    712 MOH     0.0372 ****
4578 O1    -15.802597   -6.490250   15.776825 O    712 MOH    -0.6497 ****
4579 HO1   -16.397267   -7.243059   15.732984 H    712 MOH     0.4215 ****
4580 HC1   -14.029554  -10.717661   13.265889 H    713 MOH     0.0372 ****
4581 C1    -13.115031  -10.411474   12.758186 C    713 MOH     0.1166 ****
4582 HC2   -12.519783   -9.757052   13.395289 H    713 MOH     0.0372 ****
4583 HC3   -13.390427   -9.865238   11.855918 H    713 MOH     0.0372 ****
4584 O1    -12.412973  -11.550895   12.360085 O    713 MOH    -0.6497 ****
4585 HO1   -11.478243  -11.352078   12.449888 H    713 MOH     0.4215 ****
4586 HC1    -0.763199  -14.898123    9.832178 H    714 MOH     0.0372 ****
4587 C1     -0.715857  -14.174707   10.646765 C    714 MOH     0.1166 ****
4588 HC2    -1.509136  -13.447209   10.475646 H    714 MOH     0.0372 ****
4589 HC3     0.244854  -13.661131   10.600096 H    714 MOH     0.0372 ****
4590 O1     -0.901186  -14.816473   11.940771 O    714 MOH    -0.6497 ****
4591 HO1    -1.092866  -14.140823   12.596259 H    714 MOH     0.4215 ****
4592 HC1   -17.083737  -11.055282    8.410187 H    715 MOH     0.0372 ****
4593 C1    -17.041013  -10.813599    9.472261 C    715 MOH     0.1166 ****
4594 HC2   -16.004092  -10.875653    9.803187 H    715 MOH     0.0372 ****
4595 HC3   -17.638570  -11.515378   10.054210 H    715 MOH     0.0372 ****
4596 O1    -17.474603   -9.519860    9.741669 O    715 MOH    -0.6497 ****
4597 HO1   -18.244211   -9.328392    9.200732 H    715 MOH     0.4215 ****
4598 HC1   -19.687009   -7.117727   16.125429 H    716 MOH     0.0372 ****
4599 C1    -20.121754   -8.003218   16.588584 C    716 MOH     0.1166 ****
4600 HC2   -20.533982   -8.678052   15.838343 H    716 MOH     0.0372 ****
4601 HC3   -20.943901   -7.717036   17.245486 H    716 MOH     0.0372 ****
4602 O1    -19.216469   -8.705813   17.384079 O    716 MOH    -0.6497 ****
4603 HO1   -19.743012   -9.423514   17.744703 H    716 MOH     0.4215 ****
4604 HC1     5.994685   -6.183655   14.151187 H    717 MOH     0.0372 ****
4605 C1      6.077247   -5.243868   14.697073 C    717 MOH     0.1166 ****
4606 HC2     5.250481   -4.588221   14.424130 H    717 MOH     0.0372 ****
4607 HC3     7.034493   -4.781730   14.452414 H    717 MOH     0.0372 ****
4608 O1      6.036255   -5.601901   16.038455 O    717 MOH    -0.6497 ****
4609 HO1     6.260267   -4.858889   16.602726 H    717 MOH     0.4215 ****
4610 HC1    -6.097916   -1.559427   13.894507 H    718 MOH     0.0372 ****
4611 C1     -6.763601   -0.700472   13.979360 C    718 MOH     0.1166 ****
4612 HC2    -7.805718   -1.020539   13.972289 H    718 MOH     0.0372 ****
4613 HC3    -6.628501   -0.075852   13.096890 H    718 MOH     0.0372 ****
4614 O1     -6.537857    0.096428   15.182855 O    718 MOH    -0.6497 ****
4615 HO1    -6.610603   -0.470629   15.952895 H    718 MOH     0.4215 ****
4616 HC1    -6.023438  -12.213482   22.844357 H    719 MOH     0.0372 ****
4617 C1     -5.723793  -13.260639   22.829508 C    719 MOH     0.1166 ****
4618 HC2    -5.089862  -13.449250   21.962595 H    719 MOH     0.0372 ****
4619 HC3    -6.591551  -13.914653   22.750312 H    719 MOH     0.0372 ****
4620 O1     -5.018848  -13.571724   24.023104 O    719 MOH    -0.6497 ****
4621 HO1    -4.584681  -14.420064   23.904310 H    719 MOH     0.4215 ****
4622 HC1   -13.774365   -8.945863    8.796974 H    720 MOH     0.0372 ****
4623 C1    -14.314765   -8.076294    8.423622 C    720 MOH     0.1166 ****
4624 HC2   -14.758170   -8.405751    7.483877 H    720 MOH     0.0372 ****
4625 HC3   -13.591922   -7.273270    8.277250 H    720 MOH     0.0372 ****
4626 O1    -15.306075   -7.737856    9.417107 O    720 MOH    -0.6497 ****
4627 HO1   -15.941738   -8.451883    9.499838 H    720 MOH     0.4215 ****
4628 HC1   -15.330901  -15.717886    4.487865 H    721 MOH     0.0372 ****
4629 C1    -14.918096  -14.710329    4.451096 C    721 MOH     0.1166 ****
4630 HC2   -15.003544  -14.239619    5.430439 H    721 MOH     0.0372 ****
4631 HC3   -15.494869  -14.122451    3.736918 H    721 MOH     0.0372 ****
4632 O1    -13.578643  -14.765851    4.019761 O    721 MOH    -0.6497 ****
4633 HO1   -13.545157  -15.426396    3.323968 H    721 MOH     0.4215 ****
4634 HC1     0.782367  -17.561127   10.436755 H    722 MOH     0.0372 ****
4635 C1      0.102249  -18.129817   11.071030 C    722 MOH     0.1166 ****
4636 HC2     0.456742  -18.092666   12.101284 H    722 MOH     0.0372 ****
4637 HC3     0.047400  -19.166359   10.739397 H    722 MOH     0.0372 ****
4638 O1     -1.130394  -17.506830   10.989005 O    722 MOH    -0.6497 ****
4639 HO1    -1.028203  -16.613991   11.324881 H    722 MOH     0.4215 ****
4640 HC1    -9.157295    2.694520   16.628182 H    723 MOH     0.0372 ****
4641 C1     -9.611670    2.992542   15.683487 C    723 MOH     0.1166 ****
4642 HC2   -10.692469    2.857820   15.731570 H    723 MOH     0.0372 ****
4643 HC3    -9.189049    2.367922   14.895770 H    723 MOH     0.0372 ****
4644 O1     -9.329923    4.349967   15.423979 O    723 MOH    -0.6497 ****
4645 HO1    -9.599545    4.544293   14.523125 H    723 MOH     0.4215 ****
4646 HC1    -8.116333    5.608189   19.751472 H    724 MOH     0.0372 ****
4647 C1     -8.458124    4.938661   18.962341 C    724 MOH     0.1166 ****
4648 HC2    -8.956377    4.062561   19.378120 H    724 MOH     0.0372 ****
4649 HC3    -7.585748    4.620636   18.391706 H    724 MOH     0.0372 ****
4650 O1     -9.239279    5.668609   18.040274 O    724 MOH    -0.6497 ****
4651 HO1    -9.212143    5.181569   17.213666 H    724 MOH     0.4215 ****
4652 HC1    -5.349670  -11.097740   15.420443 H    725 MOH     0.0372 ****
4653 C1     -5.489966  -11.252058   14.351298 C    725 MOH     0.1166 ****
4654 HC2    -5.686265  -10.297573   13.861980 H    725 MOH     0.0372 ****
4655 HC3    -6.324237  -11.930975   14.175228 H    725 MOH     0.0372 ****
4656 O1     -4.314481  -11.806459   13.799755 O    725 MOH    -0.6497 ****
4657 HO1    -3.667849  -11.907296   14.501912 H    725 MOH     0.4215 ****
4658 HC1    -2.586472   -3.061372   16.710913 H    726 MOH     0.0372 ****
4659 C1     -2.103807   -4.027288   16.563835 C    726 MOH     0.1166 ****
4660 HC2    -2.876879   -4.781322   16.416050 H    726 MOH     0.0372 ****
4661 HC3    -1.539158   -4.269787   17.463275 H    726 MOH     0.0372 ****
4662 O1     -1.195635   -3.999527   15.440949 O    726 MOH    -0.6497 ****
4663 HO1    -0.484339   -3.395319   15.670052 H    726 MOH     0.4215 ****
4664 HC1    -7.893475  -11.303905    8.051683 H    727 MOH     0.0372 ****
4665 C1     -8.054556  -12.316769    8.420086 C    727 MOH     0.1166 ****
4666 HC2    -8.805689  -12.271862    9.207803 H    727 MOH     0.0372 ****
4667 HC3    -7.129641  -12.717261    8.835158 H    727 MOH     0.0372 ****
4668 O1     -8.506044  -13.163476    7.363669 O    727 MOH    -0.6497 ****
4669 HO1    -8.101321  -14.021614    7.513575 H    727 MOH     0.4215 ****
4670 HC1     1.112034  -17.186763   15.665809 H    728 MOH     0.0372 ****
4671 C1      0.945757  -17.099806   16.739905 C    728 MOH     0.1166 ****
4672 HC2     1.017926  -16.043668   16.999413 H    728 MOH     0.0372 ****
4673 HC3     1.732686  -17.653799   17.252557 H    728 MOH     0.0372 ****
4674 O1     -0.379839  -17.618690   16.973957 O    728 MOH    -0.6497 ****
4675 HO1    -0.691031  -17.270046   17.812586 H    728 MOH     0.4215 ****
4676 HC1    -0.021882    0.210330   24.846884 H    729 MOH     0.0372 ****
4677 C1     -0.733177   -0.615557   24.836277 C    729 MOH     0.1166 ****
4678 HC2    -0.371179   -1.346729   24.112907 H    729 MOH     0.0372 ****
4679 HC3    -1.722178   -0.243234   24.566162 H    729 MOH     0.0372 ****
4680 O1     -0.796686   -1.189145   26.121090 O    729 MOH    -0.6497 ****
4681 HO1    -1.072659   -0.505330   26.735566 H    729 MOH     0.4215 ****
4682 HC1   -15.514499   -8.616815   18.864760 H    730 MOH     0.0372 ****
4683 C1    -15.905942   -9.385955   18.200080 C    730 MOH     0.1166 ****
4684 HC2   -15.406534   -9.352070   17.232051 H    730 MOH     0.0372 ****
4685 HC3   -16.977504   -9.223472   18.075629 H    730 MOH     0.0372 ****
4686 O1    -15.765069  -10.652749   18.784857 O    730 MOH    -0.6497 ****
4687 HO1   -16.211361  -10.653157   19.634092 H    730 MOH     0.4215 ****
4688 HC1    -5.159722   -7.257756   13.615907 H    731 MOH     0.0372 ****
4689 C1     -6.223201   -7.056898   13.484385 C    731 MOH     0.1166 ****
4690 HC2    -6.805170   -7.977906   13.511255 H    731 MOH     0.0372 ****
4691 HC3    -6.388323   -6.586188   12.514941 H    731 MOH     0.0372 ****
4692 O1     -6.673534   -6.166509   14.463728 O    731 MOH    -0.6497 ****
4693 HO1    -6.563260   -5.272037   14.133509 H    731 MOH     0.4215 ****
4694 HC1    -5.679337  -15.586021   16.022898 H    732 MOH     0.0372 ****
4695 C1     -5.865244  -15.000185   15.122751 C    732 MOH     0.1166 ****
4696 HC2    -5.847346  -15.623989   14.228968 H    732 MOH     0.0372 ****
4697 HC3    -5.117575  -14.214715   15.013857 H    732 MOH     0.0372 ****
4698 O1     -7.107702  -14.411899   15.252152 O    732 MOH    -0.6497 ****
4699 HO1    -7.406192  -14.301264   14.346348 H    732 MOH     0.4215 ****
4700 HC1    -4.494614  -12.010991   17.442062 H    733 MOH     0.0372 ****
4701 C1     -3.740595  -12.764618   17.214373 C    733 MOH     0.1166 ****
4702 HC2    -4.226724  -13.654191   16.814858 H    733 MOH     0.0372 ****
4703 HC3    -3.251579  -13.054066   18.144219 H    733 MOH     0.0372 ****
4704 O1     -2.806442  -12.222464   16.269679 O    733 MOH    -0.6497 ****
4705 HO1    -2.589936  -11.324726   16.529187 H    733 MOH     0.4215 ****
4706 HC1    -6.249182   -3.658231    8.355739 H    734 MOH     0.0372 ****
4707 C1     -6.486473   -3.944822    9.381044 C    734 MOH     0.1166 ****
4708 HC2    -5.724370   -4.607408    9.790459 H    734 MOH     0.0372 ****
4709 HC3    -7.439678   -4.473503    9.361952 H    734 MOH     0.0372 ****
4710 O1     -6.588086   -2.818464   10.218966 O    734 MOH    -0.6497 ****
4711 HO1    -5.814437   -2.262022   10.099465 H    734 MOH     0.4215 ****
4712 HC1    -8.558005  -18.640535   14.707680 H    735 MOH     0.0372 ****
4713 C1     -8.965037  -17.639919   14.562723 C    735 MOH     0.1166 ****
4714 HC2   -10.010619  -17.685642   14.257253 H    735 MOH     0.0372 ****
4715 HC3    -8.408472  -17.182272   13.746014 H    735 MOH     0.0372 ****
4716 O1     -8.810308  -16.816074   15.719549 O    735 MOH    -0.6497 ****
4717 HO1    -8.527406  -15.935890   15.459334 H    735 MOH     0.4215 ****
4718 HC1    -9.152099  -14.235128   16.930116 H    736 MOH     0.0372 ****
4719 C1     -9.063764  -13.249208   17.386200 C    736 MOH     0.1166 ****
4720 HC2    -9.664786  -13.217365   18.294125 H    736 MOH     0.0372 ****
4721 HC3    -9.415948  -12.513953   16.662830 H    736 MOH     0.0372 ****
4722 O1     -7.723734  -13.045492   17.693792 O    736 MOH    -0.6497 ****
4723 HO1    -7.238760  -13.512120   17.010019 H    736 MOH     0.4215 ****
4724 HC1    -4.856036   -0.135048   21.728543 H    737 MOH     0.0372 ****
4725 C1     -4.898759    0.739011   21.078712 C    737 MOH     0.1166 ****
4726 HC2    -4.097975    1.439157   21.317007 H    737 MOH     0.0372 ****
4727 HC3    -5.838108    1.255037   21.273873 H    737 MOH     0.0372 ****
4728 O1     -4.898182    0.384652   19.687126 O    737 MOH    -0.6497 ****
4729 HO1    -4.789063    1.177062   19.156088 H    737 MOH     0.4215 ****
4730 HC1    -7.188531  -19.072462   17.743996 H    738 MOH     0.0372 ****
4731 C1     -6.112350  -19.064297   17.574291 C    738 MOH     0.1166 ****
4732 HC2    -5.692039  -18.204118   18.094014 H    738 MOH     0.0372 ****
4733 HC3    -5.908545  -19.003876   16.505145 H    738 MOH     0.0372 ****
4734 O1     -5.518834  -20.209025   18.074922 O    738 MOH    -0.6497 ****
4735 HO1    -5.980714  -20.470304   18.873953 H    738 MOH     0.4215 ****
4736 HC1   -10.542358   -4.404509   10.342709 H    739 MOH     0.0372 ****
4737 C1    -11.124905   -5.277344   10.638280 C    739 MOH     0.1166 ****
4738 HC2   -10.788887   -6.192228   10.151083 H    739 MOH     0.0372 ****
4739 HC3   -12.145083   -5.097306   10.300990 H    739 MOH     0.0372 ****
4740 O1    -11.131833   -5.424313   12.041180 O    739 MOH    -0.6497 ****
4741 HO1   -11.318317   -4.562501   12.422310 H    739 MOH     0.4215 ****
4742 HC1   -11.373165   -7.419014   14.613634 H    740 MOH     0.0372 ****
4743 C1    -10.341440   -7.702747   14.407866 C    740 MOH     0.1166 ****
4744 HC2   -10.070663   -8.528633   15.064769 H    740 MOH     0.0372 ****
4745 HC3    -9.693076   -6.851958   14.618584 H    740 MOH     0.0372 ****
4746 O1    -10.203454   -8.021997   13.045979 O    740 MOH    -0.6497 ****
4747 HO1   -10.500212   -7.229179   12.593430 H    740 MOH     0.4215 ****
4748 HC1    -5.879100   -8.146513    8.927082 H    741 MOH     0.0372 ****
4749 C1     -5.864666   -7.439019    8.097645 C    741 MOH     0.1166 ****
4750 HC2    -6.855399   -7.007908    7.956224 H    741 MOH     0.0372 ****
4751 HC3    -5.525762   -7.932183    7.186892 H    741 MOH     0.0372 ****
4752 O1     -4.987671   -6.387371    8.404530 O    741 MOH    -0.6497 ****
4753 HO1    -4.791372   -6.380431    9.344275 H    741 MOH     0.4215 ****
4754 HC1   -10.022743  -15.893841   22.805466 H    742 MOH     0.0372 ****
4755 C1     -9.030278  -15.873020   22.355039 C    742 MOH     0.1166 ****
4756 HC2    -8.507199  -14.961810   22.644953 H    742 MOH     0.0372 ****
4757 HC3    -9.090322  -15.928542   21.268923 H    742 MOH     0.0372 ****
4758 O1     -8.295311  -16.937732   22.803345 O    742 MOH    -0.6497 ****
4759 HO1    -8.742180  -17.733816   22.507775 H    742 MOH     0.4215 ****
4760 HC1   -12.082729   -3.664355   15.810766 H    743 MOH     0.0372 ****
4761 C1    -12.322329   -4.297140   16.664951 C    743 MOH     0.1166 ****
4762 HC2   -13.367911   -4.172624   16.945672 H    743 MOH     0.0372 ****
4763 HC3   -11.690131   -3.989729   17.498630 H    743 MOH     0.0372 ****
4764 O1    -12.020375   -5.647217   16.348874 O    743 MOH    -0.6497 ****
4765 HO1   -12.482833   -5.920335   15.553379 H    743 MOH     0.4215 ****
4766 HC1   -14.676186  -11.602743    6.711009 H    744 MOH     0.0372 ****
4767 C1    -13.888103  -11.568450    5.958647 C    744 MOH     0.1166 ****
4768 HC2   -14.308414  -11.176940    5.031630 H    744 MOH     0.0372 ****
4769 HC3   -13.490309  -12.566209    5.771971 H    744 MOH     0.0372 ****
4770 O1    -12.881782  -10.668263    6.308665 O    744 MOH    -0.6497 ****
4771 HO1   -12.054439  -11.133257    6.165123 H    744 MOH     0.4215 ****
4772 HC1   -11.472470  -12.223280    3.992891 H    745 MOH     0.0372 ****
4773 C1    -11.042344  -12.793195    4.817377 C    745 MOH     0.1166 ****
4774 HC2   -10.266962  -13.437003    4.402305 H    745 MOH     0.0372 ****
4775 HC3   -11.787703  -13.441902    5.277704 H    745 MOH     0.0372 ****
4776 O1    -10.473076  -11.898723    5.757122 O    745 MOH    -0.6497 ****
4777 HO1   -10.058539  -12.438019    6.433823 H    745 MOH     0.4215 ****
4778 HC1    -2.847434  -15.290858   18.331602 H    746 MOH     0.0372 ****
4779 C1     -2.596287  -15.811375   19.255791 C    746 MOH     0.1166 ****
4780 HC2    -3.263126  -16.665022   19.376706 H    746 MOH     0.0372 ****
4781 HC3    -2.719262  -15.141439   20.106440 H    746 MOH     0.0372 ****
4782 O1     -1.256257  -16.242076   19.158917 O    746 MOH    -0.6497 ****
4783 HO1    -1.066308  -16.797702   19.917642 H    746 MOH     0.4215 ****
4784 HC1   -11.321204   -9.062622   17.552370 H    747 MOH     0.0372 ****
4785 C1    -12.330989   -8.663355   17.644294 C    747 MOH     0.1166 ****
4786 HC2   -12.943558   -9.404734   18.157654 H    747 MOH     0.0372 ****
4787 HC3   -12.732248   -8.471479   16.648688 H    747 MOH     0.0372 ****
4788 O1    -12.262862   -7.474536   18.406555 O    747 MOH    -0.6497 ****
4789 HO1   -11.928576   -6.781331   17.832384 H    747 MOH     0.4215 ****
4790 HC1    -4.704192  -13.070396    6.602822 H    748 MOH     0.0372 ****
4791 C1     -4.398774  -14.050600    6.235833 C    748 MOH     0.1166 ****
4792 HC2    -3.449610  -13.970991    5.706210 H    748 MOH     0.0372 ****
4793 HC3    -5.165495  -14.442926    5.569032 H    748 MOH     0.0372 ****
4794 O1     -4.245199  -14.971200    7.309929 O    748 MOH    -0.6497 ****
4795 HO1    -3.395917  -15.405168    7.201741 H    748 MOH     0.4215 ****
4796 HC1   -15.577430   -1.826421   15.976229 H    749 MOH     0.0372 ****
4797 C1    -14.714869   -1.363468   15.496811 C    749 MOH     0.1166 ****
4798 HC2   -13.927940   -1.248750   16.242808 H    749 MOH     0.0372 ****
4799 HC3   -15.031834   -0.371424   15.174370 H    749 MOH     0.0372 ****
4800 O1    -14.332085   -2.150978   14.337863 O    749 MOH    -0.6497 ****
4801 HO1   -15.026061   -2.104846   13.676718 H    749 MOH     0.4215 ****
4802 HC1    -8.891137   -6.389004   22.236953 H    750 MOH     0.0372 ****
4803 C1     -8.283187   -5.518210   21.988758 C    750 MOH     0.1166 ****
4804 HC2    -7.233564   -5.787654   21.874207 H    750 MOH     0.0372 ****
4805 HC3    -8.339767   -4.796019   22.804052 H    750 MOH     0.0372 ****
4806 O1     -8.678094   -4.956052   20.778898 O    750 MOH    -0.6497 ****
4807 HO1    -8.396347   -5.554544   20.083105 H    750 MOH     0.4215 ****
4808 HC1    -7.418316   -9.394936    1.527916 H    751 MOH     0.0372 ****
4809 C1     -6.494555   -9.206734    0.979909 C    751 MOH     0.1166 ****
4810 HC2    -5.903926  -10.121618    1.017385 H    751 MOH     0.0372 ****
4811 HC3    -5.972053   -8.383297    1.467105 H    751 MOH     0.0372 ****
4812 O1     -6.767642   -8.854416   -0.374201 O    751 MOH    -0.6497 ****
4813 HO1    -5.985910   -8.432287   -0.737654 H    751 MOH     0.4215 ****
4814 HC1    -9.831640  -14.133066   12.438574 H    752 MOH     0.0372 ****
4815 C1     -8.974852  -14.391079   11.814906 C    752 MOH     0.1166 ****
4816 HC2    -8.788946  -13.597852   11.091536 H    752 MOH     0.0372 ****
4817 HC3    -9.220804  -15.294940   11.257706 H    752 MOH     0.0372 ****
4818 O1     -7.811492  -14.581731   12.616058 O    752 MOH    -0.6497 ****
4819 HO1    -7.115207  -14.929558   12.054615 H    752 MOH     0.4215 ****
4820 HC1    -3.776968  -14.473137   11.621866 H    753 MOH     0.0372 ****
4821 C1     -4.275221  -15.248808   11.042038 C    753 MOH     0.1166 ****
4822 HC2    -3.548337  -15.994270   10.719597 H    753 MOH     0.0372 ****
4823 HC3    -4.737679  -14.774832   10.175832 H    753 MOH     0.0372 ****
4824 O1     -5.250366  -15.879552   11.838947 O    753 MOH    -0.6497 ****
4825 HO1    -4.778671  -16.248608   12.588481 H    753 MOH     0.4215 ****
4826 HC1    -8.695992   -2.453490   12.990824 H    754 MOH     0.0372 ****
4827 C1     -8.514704   -3.491666   13.270131 C    754 MOH     0.1166 ****
4828 HC2    -9.174038   -4.128941   12.681112 H    754 MOH     0.0372 ****
4829 HC3    -8.739293   -3.646392   14.325842 H    754 MOH     0.0372 ****
4830 O1     -7.184489   -3.887258   13.029008 O    754 MOH    -0.6497 ****
4831 HO1    -7.004933   -3.779073   12.092092 H    754 MOH     0.4215 ****
4832 HC1    -4.807538   -8.241635   16.649395 H    755 MOH     0.0372 ****
4833 C1     -4.353741   -7.362268   17.106186 C    755 MOH     0.1166 ****
4834 HC2    -3.516583   -7.045467   16.483932 H    755 MOH     0.0372 ****
4835 HC3    -4.050055   -7.611299   18.123005 H    755 MOH     0.0372 ****
4836 O1     -5.304059   -6.364509   17.070830 O    755 MOH    -0.6497 ****
4837 HO1    -5.631994   -6.308987   16.169976 H    755 MOH     0.4215 ****
4838 HC1   -12.974735    3.230959   14.320185 H    756 MOH     0.0372 ****
4839 C1    -13.882330    3.167272   14.919812 C    756 MOH     0.1166 ****
4840 HC2   -14.493166    2.320565   14.607270 H    756 MOH     0.0372 ****
4841 HC3   -14.431390    4.099303   14.787583 H    756 MOH     0.0372 ****
4842 O1    -13.510516    2.983969   16.244223 O    756 MOH    -0.6497 ****
4843 HO1   -12.983395    2.181352   16.242808 H    756 MOH     0.4215 ****
4844 HC1    -5.438005  -10.840543    9.296899 H    757 MOH     0.0372 ****
4845 C1     -4.510780  -11.017315    9.840664 C    757 MOH     0.1166 ****
4846 HC2    -4.576598  -11.941997   10.414127 H    757 MOH     0.0372 ****
4847 HC3    -4.287345  -10.180814   10.503223 H    757 MOH     0.0372 ****
4848 O1     -3.507345  -11.119377    8.910111 O    757 MOH    -0.6497 ****
4849 HO1    -2.697323  -10.778490    9.296899 H    757 MOH     0.4215 ****
4850 HC1    -7.534941  -10.696432    4.024003 H    758 MOH     0.0372 ****
4851 C1     -7.254926  -11.604784    4.557869 C    758 MOH     0.1166 ****
4852 HC2    -6.446635  -12.100398    4.020468 H    758 MOH     0.0372 ****
4853 HC3    -8.085733  -12.310646    4.581203 H    758 MOH     0.0372 ****
4854 O1     -6.817294  -11.343505    5.877330 O    758 MOH    -0.6497 ****
4855 HO1    -7.164859  -12.048142    6.428873 H    758 MOH     0.4215 ****
4856 HC1    -3.844518   -8.994853   25.910372 H    759 MOH     0.0372 ****
4857 C1     -4.735947   -8.368192   25.878553 C    759 MOH     0.1166 ****
4858 HC2    -5.624489   -8.998935   25.838247 H    759 MOH     0.0372 ****
4859 HC3    -4.726709   -7.750104   24.980527 H    759 MOH     0.0372 ****
4860 O1     -4.725554   -7.520668   27.000024 O    759 MOH    -0.6497 ****
4861 HO1    -3.969803   -6.940547   26.883351 H    759 MOH     0.4215 ****
4862 HC1    -2.187523   -7.732957   24.496866 H    760 MOH     0.0372 ****
4863 C1     -1.962933   -6.667021   24.547071 C    760 MOH     0.1166 ****
4864 HC2    -2.322045   -6.119152   23.675915 H    760 MOH     0.0372 ****
4865 HC3    -0.876938   -6.620481   24.474946 H    760 MOH     0.0372 ****
4866 O1     -2.323777   -6.068937   25.813499 O    760 MOH    -0.6497 ****
4867 HO1    -2.395946   -5.120168   25.687634 H    760 MOH     0.4215 ****
4868 HC1    -3.100891  -21.183922   15.864506 H    761 MOH     0.0372 ****
4869 C1     -2.519499  -20.426621   16.391301 C    761 MOH     0.1166 ****
4870 HC2    -1.465835  -20.670754   16.254122 H    761 MOH     0.0372 ****
4871 HC3    -2.749284  -20.416007   17.456204 H    761 MOH     0.0372 ****
4872 O1     -2.647671  -19.166359   15.839051 O    761 MOH    -0.6497 ****
4873 HO1    -1.849195  -18.689933   16.080174 H    761 MOH     0.4215 ****
4874 HC1    -7.945437   -9.826863   20.946483 H    762 MOH     0.0372 ****
4875 C1     -7.600181  -10.669896   20.348978 C    762 MOH     0.1166 ****
4876 HC2    -6.860018  -11.201843   20.947897 H    762 MOH     0.0372 ****
4877 HC3    -7.158508  -10.284101   19.430446 H    762 MOH     0.0372 ****
4878 O1     -8.652691  -11.587638   20.015223 O    762 MOH    -0.6497 ****
4879 HO1    -8.373831  -12.100806   19.253669 H    762 MOH     0.4215 ****
4880 HC1    -2.880343  -21.506438   11.201844 H    763 MOH     0.0372 ****
4881 C1     -2.913252  -20.421314   11.102849 C    763 MOH     0.1166 ****
4882 HC2    -2.468115  -19.952237   11.980369 H    763 MOH     0.0372 ****
4883 HC3    -3.950750  -20.095532   11.027896 H    763 MOH     0.0372 ****
4884 O1     -2.227360  -20.044093    9.937537 O    763 MOH    -0.6497 ****
4885 HO1    -2.125746  -19.090833    9.977842 H    763 MOH     0.4215 ****
4886 HC1    -1.912704   -8.125692   14.369683 H    764 MOH     0.0372 ****
4887 C1     -1.249328   -8.947496   14.639090 C    764 MOH     0.1166 ****
4888 HC2    -0.233192   -8.561293   14.716872 H    764 MOH     0.0372 ****
4889 HC3    -1.263185   -9.730108   13.880365 H    764 MOH     0.0372 ****
4890 O1     -1.627493   -9.374524   15.926025 O    764 MOH    -0.6497 ****
4891 HO1    -1.573799   -8.605384   16.497367 H    764 MOH     0.4215 ****
4892 HC1     1.867208   -1.926442   18.473023 H    765 MOH     0.0372 ****
4893 C1      1.527726   -2.672312   17.753896 C    765 MOH     0.1166 ****
4894 HC2     1.021390   -3.509629   18.235435 H    765 MOH     0.0372 ****
4895 HC3     2.414536   -3.069129   17.258921 H    765 MOH     0.0372 ****
4896 O1      0.686527   -2.051774   16.799302 O    765 MOH    -0.6497 ****
4897 HO1     1.215957   -1.366734   16.383523 H    765 MOH     0.4215 ****
4898 HC1    -7.426399   -9.162643    9.492060 H    766 MOH     0.0372 ****
4899 C1     -8.056865   -9.476178   10.323618 C    766 MOH     0.1166 ****
4900 HC2    -9.033165   -9.788896    9.953094 H    766 MOH     0.0372 ****
4901 HC3    -8.227184   -8.649067   11.013754 H    766 MOH     0.0372 ****
4902 O1     -7.454689  -10.530275   11.019411 O    766 MOH    -0.6497 ****
4903 HO1    -8.105363  -10.884634   11.628937 H    766 MOH     0.4215 ****
4904 HC1    -4.764237   -4.430229   12.635857 H    767 MOH     0.0372 ****
4905 C1     -4.107790   -4.154661   13.461050 C    767 MOH     0.1166 ****
4906 HC2    -4.654540   -4.190587   14.404331 H    767 MOH     0.0372 ****
4907 HC3    -3.761379   -3.131999   13.310437 H    767 MOH     0.0372 ****
4908 O1     -2.988885   -5.026679   13.526104 O    767 MOH    -0.6497 ****
4909 HO1    -2.383822   -4.700081   14.196441 H    767 MOH     0.4215 ****
4910 HC1    -0.987789    0.284631   20.403425 H    768 MOH     0.0372 ****
4911 C1     -1.299558   -0.134232   21.360847 C    768 MOH     0.1166 ****
4912 HC2    -1.826679    0.612046   21.953403 H    768 MOH     0.0372 ****
4913 HC3    -0.406974   -0.467771   21.889056 H    768 MOH     0.0372 ****
4914 O1     -2.114199   -1.248341   21.133866 O    768 MOH    -0.6497 ****
4915 HO1    -2.800091   -1.007067   20.508077 H    768 MOH     0.4215 ****
4916 HC1    -8.308013    5.678815   12.683940 H    769 MOH     0.0372 ****
4917 C1     -9.215607    6.058486   12.214421 C    769 MOH     0.1166 ****
4918 HC2    -9.085126    6.038482   11.131841 H    769 MOH     0.0372 ****
4919 HC3    -9.358790    7.089313   12.536155 H    769 MOH     0.0372 ****
4920 O1    -10.355874    5.265260   12.588480 O    769 MOH    -0.6497 ****
4921 HO1   -11.128946    5.770263   12.326144 H    769 MOH     0.4215 ****
4922 HC1   -15.426164  -14.498040   12.688890 H    770 MOH     0.0372 ****
4923 C1    -14.782419  -13.713795   12.292203 C    770 MOH     0.1166 ****
4924 HC2   -14.748355  -12.912403   13.029715 H    770 MOH     0.0372 ****
4925 HC3   -15.181368  -13.273703   11.377207 H    770 MOH     0.0372 ****
4926 O1    -13.470679  -14.178381   12.061686 O    770 MOH    -0.6497 ****
4927 HO1   -13.028429  -13.391279   11.736417 H    770 MOH     0.4215 ****
4928 HC1    -6.150455   -2.791112   19.195686 H    771 MOH     0.0372 ****
4929 C1     -5.568486   -2.548612   18.306146 C    771 MOH     0.1166 ****
4930 HC2    -5.604859   -3.370416   17.591261 H    771 MOH     0.0372 ****
4931 HC3    -4.541380   -2.405317   18.643436 H    771 MOH     0.0372 ****
4932 O1     -6.034407   -1.304272   17.774402 O    771 MOH    -0.6497 ****
4933 HO1    -5.618715   -0.626988   18.312510 H    771 MOH     0.4215 ****
4934 HC1    -8.656155   -7.357369   16.867184 H    772 MOH     0.0372 ****
4935 C1     -8.493342   -7.581497   17.921480 C    772 MOH     0.1166 ****
4936 HC2    -7.925807   -8.508221   18.013404 H    772 MOH     0.0372 ****
4937 HC3    -9.477147   -7.699073   18.375442 H    772 MOH     0.0372 ****
4938 O1     -7.800522   -6.504946   18.513328 O    772 MOH    -0.6497 ****
4939 HO1    -6.962209   -6.414315   18.055123 H    772 MOH     0.4215 ****
4940 HC1   -10.720760  -13.423530   21.626719 H    773 MOH     0.0372 ****
4941 C1    -11.113935  -12.988746   22.545251 C    773 MOH     0.1166 ****
4942 HC2   -11.298110  -11.924034   22.403830 H    773 MOH     0.0372 ****
4943 HC3   -10.414764  -13.132857   23.369031 H    773 MOH     0.0372 ****
4944 O1    -12.278451  -13.649700   22.874056 O    773 MOH    -0.6497 ****
4945 HO1   -12.702803  -13.200218   23.608740 H    773 MOH     0.4215 ****
4946 HC1    -8.933860   -7.462289    7.531253 H    774 MOH     0.0372 ****
4947 C1     -9.067228   -8.484951    7.178407 C    774 MOH     0.1166 ****
4948 HC2   -10.066044   -8.562518    6.749900 H    774 MOH     0.0372 ****
4949 HC3    -8.993905   -9.201835    7.995822 H    774 MOH     0.0372 ****
4950 O1     -8.146932   -8.762151    6.166537 O    774 MOH    -0.6497 ****
4951 HO1    -8.030885   -9.710104    6.074613 H    774 MOH     0.4215 ****
4952 HC1    -6.746858  -16.736873    6.488978 H    775 MOH     0.0372 ****
4953 C1     -7.483557  -16.391087    7.213762 C    775 MOH     0.1166 ****
4954 HC2    -7.754334  -17.199011    7.894706 H    775 MOH     0.0372 ****
4955 HC3    -8.392306  -16.091433    6.693331 H    775 MOH     0.0372 ****
4956 O1     -7.043616  -15.309637    8.007843 O    775 MOH    -0.6497 ****
4957 HO1    -6.096184  -15.378223    8.143607 H    775 MOH     0.4215 ****
4958 HC1    -5.798271   -0.181589    6.841117 H    776 MOH     0.0372 ****
4959 C1     -6.645821   -0.846217    7.010822 C    776 MOH     0.1166 ****
4960 HC2    -7.511269   -0.202409    7.167093 H    776 MOH     0.0372 ****
4961 HC3    -6.413149   -1.447975    7.889049 H    776 MOH     0.0372 ****
4962 O1     -6.779189   -1.547996    5.795306 O    776 MOH    -0.6497 ****
4963 HO1    -5.933371   -1.953795    5.590245 H    776 MOH     0.4215 ****
4964 HC1    -7.909641  -18.987546   12.251191 H    777 MOH     0.0372 ****
4965 C1     -6.874452  -18.683401   12.094920 C    777 MOH     0.1166 ****
4966 HC2    -6.285555  -19.586038   11.927336 H    777 MOH     0.0372 ****
4967 HC3    -6.501484  -18.126551   12.953348 H    777 MOH     0.0372 ****
4968 O1     -6.876761  -17.951820   10.918294 O    777 MOH    -0.6497 ****
4969 HO1    -6.239367  -17.242693   11.027896 H    777 MOH     0.4215 ****
4970 HC1    -4.380876   -4.799285   21.422366 H    778 MOH     0.0372 ****
4971 C1     -4.317368   -5.722334   20.846074 C    778 MOH     0.1166 ****
4972 HC2    -3.285643   -5.926459   20.560402 H    778 MOH     0.0372 ****
4973 HC3    -4.934555   -5.610474   19.955119 H    778 MOH     0.0372 ****
4974 O1     -4.835251   -6.775615   21.611163 O    778 MOH    -0.6497 ****
4975 HO1    -4.585258   -7.600277   21.186899 H    778 MOH     0.4215 ****
4976 HC1   -16.431908   -5.491674   12.939913 H    779 MOH     0.0372 ****
4977 C1    -16.598185   -4.421247   13.058706 C    779 MOH     0.1166 ****
4978 HC2   -16.244847   -4.100364   14.038756 H    779 MOH     0.0372 ****
4979 HC3   -17.665129   -4.208142   12.986582 H    779 MOH     0.0372 ****
4980 O1    -15.911138   -3.706813   12.048958 O    779 MOH    -0.6497 ****
4981 HO1   -16.001782   -4.236719   11.254170 H    779 MOH     0.4215 ****
4982 HC1    -9.768709    0.824335   10.090979 H    780 MOH     0.0372 ****
4983 C1     -8.897487    0.169097   10.071887 C    780 MOH     0.1166 ****
4984 HC2    -8.898065   -0.402451    9.144163 H    780 MOH     0.0372 ****
4985 HC3    -8.925200   -0.540031   10.899910 H    780 MOH     0.0372 ****
4986 O1     -7.719115    0.953750   10.145427 O    780 MOH    -0.6497 ****
4987 HO1    -7.748560    1.464468   10.957892 H    780 MOH     0.4215 ****
4988 HC1   -13.953921   -5.940747   12.616058 H    781 MOH     0.0372 ****
4989 C1    -13.686608   -6.945446   12.944862 C    781 MOH     0.1166 ****
4990 HC2   -12.742063   -7.234894   12.484536 H    781 MOH     0.0372 ****
4991 HC3   -14.449288   -7.659064   12.635150 H    781 MOH     0.0372 ****
4992 O1    -13.519176   -6.937690   14.373925 O    781 MOH    -0.6497 ****
4993 HO1   -14.347674   -6.749895   14.820817 H    781 MOH     0.4215 ****
4994 HC1    -2.794318   -7.056490    4.640600 H    782 MOH     0.0372 ****
4995 C1     -3.718655   -6.541281    4.378971 C    782 MOH     0.1166 ****
4996 HC2    -4.431683   -6.588229    5.202750 H    782 MOH     0.0372 ****
4997 HC3    -4.154555   -6.987496    3.485895 H    782 MOH     0.0372 ****
4998 O1     -3.480787   -5.192020    4.099664 O    782 MOH    -0.6497 ****
4999 HO1    -2.976183   -5.161810    3.283662 H    782 MOH     0.4215 ****
5000 HC1   -11.072366    0.136845   14.692830 H    783 MOH     0.0372 ****
5001 C1    -11.443025   -0.259972   15.637525 C    783 MOH     0.1166 ****
5002 HC2   -10.588546   -0.382855   16.302912 H    783 MOH     0.0372 ****
5003 HC3   -11.914720   -1.235686   15.521559 H    783 MOH     0.0372 ****
5004 O1    -12.298081    0.675324   16.199675 O    783 MOH    -0.6497 ****
5005 HO1   -12.113328    0.676957   17.141541 H    783 MOH     0.4215 ****
5006 HC1   -11.188413  -12.917711   26.844460 H    784 MOH     0.0372 ****
5007 C1    -10.294098  -13.360252   27.284281 C    784 MOH     0.1166 ****
5008 HC2   -10.228280  -13.087134   28.337163 H    784 MOH     0.0372 ****
5009 HC3    -9.403824  -12.990379   26.775164 H    784 MOH     0.0372 ****
5010 O1    -10.345482  -14.772791   27.168315 O    784 MOH    -0.6497 ****
5011 HO1    -9.440197  -15.081018   27.256704 H    784 MOH     0.4215 ****
5012 HC1   -12.534794  -17.276169    5.180123 H    785 MOH     0.0372 ****
5013 C1    -12.020952  -16.967126    6.090169 C    785 MOH     0.1166 ****
5014 HC2   -10.937843  -16.993253    5.974204 H    785 MOH     0.0372 ****
5015 HC3   -12.324061  -17.606442    6.920313 H    785 MOH     0.0372 ****
5016 O1    -12.460316  -15.709721    6.373012 O    785 MOH    -0.6497 ****
5017 HO1   -12.792292  -15.347605    5.547818 H    785 MOH     0.4215 ****
5018 HC1   -11.784239   -4.538006   20.431002 H    786 MOH     0.0372 ****
5019 C1    -11.850634   -4.798469   21.487419 C    786 MOH     0.1166 ****
5020 HC2   -11.742670   -5.876652   21.611163 H    786 MOH     0.0372 ****
5021 HC3   -12.834439   -4.483709   21.836023 H    786 MOH     0.0372 ****
5022 O1    -10.866829   -4.079543   22.210790 O    786 MOH    -0.6497 ****
5023 HO1   -10.044105   -4.188546   21.727836 H    786 MOH     0.4215 ****
5024 HC1    -4.237693   -1.977065   25.279633 H    787 MOH     0.0372 ****
5025 C1     -3.800062   -2.880518   24.854662 C    787 MOH     0.1166 ****
5026 HC2    -3.556420   -2.685375   23.810972 H    787 MOH     0.0372 ****
5027 HC3    -4.505584   -3.706813   24.948000 H    787 MOH     0.0372 ****
5028 O1     -2.663837   -3.178131   25.602074 O    787 MOH    -0.6497 ****
5029 HO1    -2.036257   -2.452266   25.553991 H    787 MOH     0.4215 ****
5030 HC1    -7.457576   -9.174890   24.646773 H    788 MOH     0.0372 ****
5031 C1     -7.868072  -10.131416   24.969920 C    788 MOH     0.1166 ****
5032 HC2    -7.089226  -10.894024   24.991134 H    788 MOH     0.0372 ****
5033 HC3    -8.653268  -10.410250   24.267763 H    788 MOH     0.0372 ****
5034 O1     -8.463897   -9.986896   26.225742 O    788 MOH    -0.6497 ****
5035 HO1    -7.843246   -9.537823   26.804155 H    788 MOH     0.4215 ****
5036 HC1   -11.074675    1.550609   11.617623 H    789 MOH     0.0372 ****
5037 C1    -10.508295    1.855570   12.497971 C    789 MOH     0.1166 ****
5038 HC2   -10.122625    0.961915   12.989410 H    789 MOH     0.0372 ****
5039 HC3   -11.162432    2.379353   13.194471 H    789 MOH     0.0372 ****
5040 O1     -9.413639    2.670026   12.092799 O    789 MOH    -0.6497 ****
5041 HO1    -9.764667    3.545310   11.916022 H    789 MOH     0.4215 ****
5042 HC1   -19.158156   -7.854207   11.014461 H    790 MOH     0.0372 ****
5043 C1    -18.599281   -7.221831   11.703890 C    790 MOH     0.1166 ****
5044 HC2   -18.554248   -6.221214   11.273262 H    790 MOH     0.0372 ****
5045 HC3   -17.586032   -7.616198   11.784500 H    790 MOH     0.0372 ****
5046 O1    -19.264389   -7.209583   12.992238 O    790 MOH    -0.6497 ****
5047 HO1   -18.797312   -7.827671   13.557924 H    790 MOH     0.4215 ****
5048 HC1   -10.683232  -14.067338    8.913647 H    791 MOH     0.0372 ****
5049 C1    -11.565423  -13.483951    9.174569 C    791 MOH     0.1166 ****
5050 HC2   -11.261159  -12.485376    9.485696 H    791 MOH     0.0372 ****
5051 HC3   -12.100627  -13.973849    9.987742 H    791 MOH     0.0372 ****
5052 O1    -12.386415  -13.428838    8.007136 O    791 MOH    -0.6497 ****
5053 HO1   -12.477059  -14.317594    7.654289 H    791 MOH     0.4215 ****
5054 HC1    -3.146501  -23.059823   14.364733 H    792 MOH     0.0372 ****
5055 C1     -2.308766  -22.831612   13.705002 C    792 MOH     0.1166 ****
5056 HC2    -1.951386  -21.830179   13.940469 H    792 MOH     0.0372 ****
5057 HC3    -2.659218  -22.876519   12.674041 H    792 MOH     0.0372 ****
5058 O1     -1.227966  -23.773441   13.909356 O    792 MOH    -0.6497 ****
5059 HO1    -0.394850  -23.385197   13.631463 H    792 MOH     0.4215 ****
5060 HC1    -8.952913  -12.204501   13.980067 H    793 MOH     0.0372 ****
5061 C1     -9.264682  -11.161018   13.944711 C    793 MOH     0.1166 ****
5062 HC2    -8.458701  -10.503739   14.272809 H    793 MOH     0.0372 ****
5063 HC3   -10.107614  -11.037727   14.623534 H    793 MOH     0.0372 ****
5064 O1     -9.717902  -10.814824   12.650706 O    793 MOH    -0.6497 ****
5065 HO1    -9.929212   -9.879119   12.680404 H    793 MOH     0.4215 ****
5066 HC1    -2.256805   -4.190995   21.477520 H    794 MOH     0.0372 ****
5067 C1     -1.331312   -3.891341   21.971080 C    794 MOH     0.1166 ****
5068 HC2    -0.887330   -4.745396   22.483026 H    794 MOH     0.0372 ****
5069 HC3    -1.577263   -3.139348   22.720614 H    794 MOH     0.0372 ****
5070 O1     -0.449121   -3.392053   20.945069 O    794 MOH    -0.6497 ****
5071 HO1    -0.639647   -2.453899   20.870115 H    794 MOH     0.4215 ****
5072 HC1   -13.227614  -13.033653   14.796775 H    795 MOH     0.0372 ****
5073 C1    -12.456274  -13.326775   15.509539 C    795 MOH     0.1166 ****
5074 HC2   -11.558495  -13.583155   14.946682 H    795 MOH     0.0372 ****
5075 HC3   -12.786519  -14.215124   16.048354 H    795 MOH     0.0372 ****
5076 O1    -12.195890  -12.249408   16.418171 O    795 MOH    -0.6497 ****
5077 HO1   -12.862152  -12.274311   17.109014 H    795 MOH     0.4215 ****
5078 HC1   -13.356941  -12.422914   20.679903 H    796 MOH     0.0372 ****
5079 C1    -12.873699  -12.573557   19.714703 C    796 MOH     0.1166 ****
5080 HC2   -12.418169  -13.563151   19.694904 H    796 MOH     0.0372 ****
5081 HC3   -12.113328  -11.804418   19.576110 H    796 MOH     0.0372 ****
5082 O1    -13.904846  -12.524159   18.728289 O    796 MOH    -0.6497 ****
5083 HO1   -14.417533  -11.723176   18.858396 H    796 MOH     0.4215 ****
5084 HC1   -17.657046  -10.995269   14.346348 H    797 MOH     0.0372 ****
5085 C1    -17.069303  -10.079569   14.407866 C    797 MOH     0.1166 ****
5086 HC2   -16.603381   -9.868912   13.444787 H    797 MOH     0.0372 ****
5087 HC3   -16.280643  -10.228171   15.144672 H    797 MOH     0.0372 ****
5088 O1    -17.851035   -8.954845   14.783340 O    797 MOH    -0.6497 ****
5089 HO1   -18.251139   -9.118960   15.640353 H    797 MOH     0.4215 ****
5090 HC1    -3.839899   -0.322026   16.825464 H    798 MOH     0.0372 ****
5091 C1     -2.894199    0.020902   17.245486 C    798 MOH     0.1166 ****
5092 HC2    -3.007937    0.995391   17.721369 H    798 MOH     0.0372 ****
5093 HC3    -2.164429    0.134395   16.443627 H    798 MOH     0.0372 ****
5094 O1     -2.452526   -0.901330   18.217758 O    798 MOH    -0.6497 ****
5095 HO1    -1.621142   -1.289575   17.935622 H    798 MOH     0.4215 ****
5096 HC1    -3.921883   -8.387788   11.896223 H    799 MOH     0.0372 ****
5097 C1     -3.140150   -7.714586   11.544791 C    799 MOH     0.1166 ****
5098 HC2    -2.580698   -8.149371   10.716769 H    799 MOH     0.0372 ****
5099 HC3    -2.454836   -7.509646   12.366449 H    799 MOH     0.0372 ****
5100 O1     -3.714037   -6.515153   11.099314 O    799 MOH    -0.6497 ****
5101 HO1    -3.518892   -5.871753   11.785207 H    799 MOH     0.4215 ****
5102 HC1    -4.523597    3.812141   16.259072 H    800 MOH     0.0372 ****
5103 C1     -5.324382    3.418181   16.884861 C    800 MOH     0.1166 ****
5104 HC2    -5.890185    2.687825   16.305741 H    800 MOH     0.0372 ****
5105 HC3    -5.996995    4.195078   17.246193 H    800 MOH     0.0372 ****
5106 O1     -4.827284    2.677211   17.929258 O    800 MOH    -0.6497 ****
5107 HO1    -4.282842    3.273253   18.448274 H    800 MOH     0.4215 ****
5108 HC1     7.585747    5.051175   20.765463 H    801 MOH     0.0372 ****
5109 C1      7.646946    5.830929   21.523482 C    801 MOH     0.1166 ****
5110 HC2     8.007213    5.385122   22.451206 H    801 MOH     0.0372 ****
5111 HC3     6.653904    6.256324   21.669146 H    801 MOH     0.0372 ****
5112 O1      8.518168    6.853591   21.095682 O    801 MOH    -0.6497 ****
5113 HO1     9.404978    6.493516   21.029214 H    801 MOH     0.4215 ****
5114 HC1    13.844224    9.800327   14.984866 H    802 MOH     0.0372 ****
5115 C1     14.277814    9.993428   15.965623 C    802 MOH     0.1166 ****
5116 HC2    14.563603   11.044259   16.016534 H    802 MOH     0.0372 ****
5117 HC3    15.165779    9.374116   16.092195 H    802 MOH     0.0372 ****
5118 O1     13.323454    9.678669   16.973250 O    802 MOH    -0.6497 ****
5119 HO1    13.524372    8.787055   17.265992 H    802 MOH     0.4215 ****
5120 HC1     7.207006   -1.053362    7.352355 H    803 MOH     0.0372 ****
5121 C1      7.019944   -2.039282    7.777326 C    803 MOH     0.1166 ****
5122 HC2     6.627923   -1.944568    8.789903 H    803 MOH     0.0372 ****
5123 HC3     7.977191   -2.555716    7.845916 H    803 MOH     0.0372 ****
5124 O1      6.178745   -2.843123    6.928091 O    803 MOH    -0.6497 ****
5125 HO1     5.462830   -3.189317    7.465492 H    803 MOH     0.4215 ****
5126 HC1     9.837413   -0.581427   13.989259 H    804 MOH     0.0372 ****
5127 C1      8.988708   -0.146643   14.517468 C    804 MOH     0.1166 ****
5128 HC2     8.852454    0.880510   14.179471 H    804 MOH     0.0372 ****
5129 HC3     9.153253   -0.158890   15.595099 H    804 MOH     0.0372 ****
5130 O1      7.823038   -0.844747   14.183714 O    804 MOH    -0.6497 ****
5131 HO1     7.850174   -1.645322   14.713337 H    804 MOH     0.4215 ****
5132 HC1    17.913966    8.188971   10.369580 H    805 MOH     0.0372 ****
5133 C1     17.719399    8.930350   11.144569 C    805 MOH     0.1166 ****
5134 HC2    16.655343    8.972399   11.377207 H    805 MOH     0.0372 ****
5135 HC3    18.020776    9.918719   10.797379 H    805 MOH     0.0372 ****
5136 O1     18.389126    8.600077   12.355843 O    805 MOH    -0.6497 ****
5137 HO1    18.171465    7.705605   12.628079 H    805 MOH     0.4215 ****
5138 HC1     2.027596   12.901789   16.836778 H    806 MOH     0.0372 ****
5139 C1      2.631505   13.453333   17.557320 C    806 MOH     0.1166 ****
5140 HC2     3.443259   12.818098   17.910873 H    806 MOH     0.0372 ****
5141 HC3     1.983140   13.739106   18.386049 H    806 MOH     0.0372 ****
5142 O1      3.136109   14.577240   16.901832 O    806 MOH    -0.6497 ****
5143 HO1     3.949018   14.838927   17.340945 H    806 MOH     0.4215 ****
5144 HC1     9.428072   14.385363    3.256085 H    807 MOH     0.0372 ****
5145 C1      9.965585   14.727884    2.371495 C    807 MOH     0.1166 ****
5146 HC2     9.637650   14.153887    1.504582 H    807 MOH     0.0372 ****
5147 HC3    11.025023   14.543355    2.549686 H    807 MOH     0.0372 ****
5148 O1      9.705200   16.108579    2.102794 O    807 MOH    -0.6497 ****
5149 HO1     9.964431   16.313520    1.201940 H    807 MOH     0.4215 ****
5150 HC1     0.089431    7.580273   21.221547 H    808 MOH     0.0372 ****
5151 C1     -0.930747    7.287559   21.469742 C    808 MOH     0.1166 ****
5152 HC2    -1.091827    7.345122   22.545251 H    808 MOH     0.0372 ****
5153 HC3    -1.139170    6.265305   21.152958 H    808 MOH     0.0372 ****
5154 O1     -1.816979    8.179989   20.868701 O    808 MOH    -0.6497 ****
5155 HO1    -1.365491    8.556394   20.109268 H    808 MOH     0.4215 ****
5156 HC1    12.796911   12.553145   11.898344 H    809 MOH     0.0372 ****
5157 C1     12.845408   11.465572   11.847433 C    809 MOH     0.1166 ****
5158 HC2    12.467244   11.110804   10.889303 H    809 MOH     0.0372 ****
5159 HC3    12.238613   11.018948   12.635150 H    809 MOH     0.0372 ****
5160 O1     14.181974   11.031195   11.920972 O    809 MOH    -0.6497 ****
5161 HO1    14.149643   10.071812   11.942185 H    809 MOH     0.4215 ****
5162 HC1     3.886664   11.528442    6.324929 H    810 MOH     0.0372 ****
5163 C1      3.932275   11.073653    5.334979 C    810 MOH     0.1166 ****
5164 HC2     4.849684   10.494757    5.226085 H    810 MOH     0.0372 ****
5165 HC3     3.921883   11.851366    4.572011 H    810 MOH     0.0372 ****
5166 O1      2.828959   10.237153    5.117897 O    810 MOH    -0.6497 ****
5167 HO1     3.088189    9.349621    5.375284 H    810 MOH     0.4215 ****
5168 HC1    11.993817    6.971574    4.820206 H    811 MOH     0.0372 ****
5169 C1     12.192425    7.932183    5.294674 C    811 MOH     0.1166 ****
5170 HC2    13.257059    8.149371    5.211236 H    811 MOH     0.0372 ****
5171 HC3    11.963217    7.897073    6.359577 H    811 MOH     0.0372 ****
5172 O1     11.399146    8.927900    4.643429 O    811 MOH    -0.6497 ****
5173 HO1    11.446489    9.703980    5.206993 H    811 MOH     0.4215 ****
5174 HC1    10.835075    1.504313    9.832178 H    812 MOH     0.0372 ****
5175 C1     10.882417    2.227729   10.646765 C    812 MOH     0.1166 ****
5176 HC2    10.089138    2.955228   10.475646 H    812 MOH     0.0372 ****
5177 HC3    11.843128    2.741306   10.600096 H    812 MOH     0.0372 ****
5178 O1     10.697088    1.585963   11.940771 O    812 MOH    -0.6497 ****
5179 HO1    10.505408    2.261614   12.596259 H    812 MOH     0.4215 ****
5180 HC1    -5.485463    5.347155    8.410187 H    813 MOH     0.0372 ****
5181 C1     -5.442739    5.588838    9.472261 C    813 MOH     0.1166 ****
5182 HC2    -4.405818    5.526784    9.803187 H    813 MOH     0.0372 ****
5183 HC3    -6.040296    4.887059   10.054210 H    813 MOH     0.0372 ****
5184 O1     -5.876329    6.882576    9.741669 O    813 MOH    -0.6497 ****
5185 HO1    -6.645937    7.074045    9.200732 H    813 MOH     0.4215 ****
5186 HC1    -8.088735    9.284709   16.125429 H    814 MOH     0.0372 ****
5187 C1     -8.523480    8.399219   16.588584 C    814 MOH     0.1166 ****
5188 HC2    -8.935708    7.724384   15.838343 H    814 MOH     0.0372 ****
5189 HC3    -9.345627    8.685401   17.245486 H    814 MOH     0.0372 ****
5190 O1     -7.618195    7.696623   17.384079 O    814 MOH    -0.6497 ****
5191 HO1    -8.144738    6.978923   17.744703 H    814 MOH     0.4215 ****
5192 HC1    17.592960   10.218781   14.151187 H    815 MOH     0.0372 ****
5193 C1     17.675521   11.158569   14.697073 C    815 MOH     0.1166 ****
5194 HC2    16.848755   11.814216   14.424130 H    815 MOH     0.0372 ****
5195 HC3    18.632767   11.620706   14.452414 H    815 MOH     0.0372 ****
5196 O1     17.634529   10.800535   16.038455 O    815 MOH    -0.6497 ****
5197 HO1    17.858541   11.543547   16.602726 H    815 MOH     0.4215 ****
5198 HC1     5.500358   14.843010   13.894507 H    816 MOH     0.0372 ****
5199 C1      4.834673   15.701964   13.979360 C    816 MOH     0.1166 ****
5200 HC2     3.792556   15.381898   13.972289 H    816 MOH     0.0372 ****
5201 HC3     4.969773   16.326584   13.096890 H    816 MOH     0.0372 ****
5202 O1      5.060417   16.498865   15.182855 O    816 MOH    -0.6497 ****
5203 HO1     4.987671   15.931808   15.952895 H    816 MOH     0.4215 ****
5204 HC1     5.574836    4.188954   22.844357 H    817 MOH     0.0372 ****
5205 C1      5.874481    3.141797   22.829508 C    817 MOH     0.1166 ****
5206 HC2     6.508412    2.953187   21.962595 H    817 MOH     0.0372 ****
5207 HC3     5.006724    2.487784   22.750312 H    817 MOH     0.0372 ****
5208 O1      6.579426    2.830712   24.023104 O    817 MOH    -0.6497 ****
5209 HO1     7.013593    1.982372   23.904310 H    817 MOH     0.4215 ****
5210 HC1    -2.176091    7.456573    8.796974 H    818 MOH     0.0372 ****
5211 C1     -2.716491    8.326142    8.423622 C    818 MOH     0.1166 ****
5212 HC2    -3.159896    7.996686    7.483877 H    818 MOH     0.0372 ****
5213 HC3    -1.993648    9.129167    8.277250 H    818 MOH     0.0372 ****
5214 O1     -3.707801    8.664580    9.417107 O    818 MOH    -0.6497 ****
5215 HO1    -4.343464    7.950554    9.499838 H    818 MOH     0.4215 ****
5216 HC1    -3.732627    0.684551    4.487865 H    819 MOH     0.0372 ****
5217 C1     -3.319822    1.692108    4.451096 C    819 MOH     0.1166 ****
5218 HC2    -3.405270    2.162818    5.430439 H    819 MOH     0.0372 ****
5219 HC3    -3.896595    2.279985    3.736918 H    819 MOH     0.0372 ****
5220 O1     -1.980369    1.636586    4.019761 O    819 MOH    -0.6497 ****
5221 HO1    -1.946883    0.976040    3.323968 H    819 MOH     0.4215 ****
5222 HC1    12.380641   -1.158690   10.436755 H    820 MOH     0.0372 ****
5223 C1     11.700523   -1.727380   11.071030 C    820 MOH     0.1166 ****
5224 HC2    12.055016   -1.690229   12.101284 H    820 MOH     0.0372 ****
5225 HC3    11.645674   -2.763923   10.739397 H    820 MOH     0.0372 ****
5226 O1     10.467880   -1.104393   10.989005 O    820 MOH    -0.6497 ****
5227 HO1    10.570071   -0.211554   11.324881 H    820 MOH     0.4215 ****
5228 HC1     2.440979   19.096957   16.628182 H    821 MOH     0.0372 ****
5229 C1      1.986604   19.394978   15.683487 C    821 MOH     0.1166 ****
5230 HC2     0.905805   19.260256   15.731570 H    821 MOH     0.0372 ****
5231 HC3     2.409225   18.770358   14.895770 H    821 MOH     0.0372 ****
5232 O1      2.268351   20.752404   15.423979 O    821 MOH    -0.6497 ****
5233 HO1     1.998729   20.946730   14.523125 H    821 MOH     0.4215 ****
5234 HC1     3.481942   22.010625   19.751472 H    822 MOH     0.0372 ****
5235 C1      3.140150   21.341098   18.962341 C    822 MOH     0.1166 ****
5236 HC2     2.641897   20.464997   19.378120 H    822 MOH     0.0372 ****
5237 HC3     4.012526   21.023072   18.391706 H    822 MOH     0.0372 ****
5238 O1      2.358995   22.071046   18.040274 O    822 MOH    -0.6497 ****
5239 HO1     2.386131   21.584006   17.213666 H    822 MOH     0.4215 ****
5240 HC1     6.248604    5.304697   15.420443 H    823 MOH     0.0372 ****
5241 C1      6.108308    5.150379   14.351298 C    823 MOH     0.1166 ****
5242 HC2     5.912009    6.104863   13.861980 H    823 MOH     0.0372 ****
5243 HC3     5.274037    4.471462   14.175228 H    823 MOH     0.0372 ****
5244 O1      7.283793    4.595978   13.799755 O    823 MOH    -0.6497 ****
5245 HO1     7.930425    4.495140   14.501912 H    823 MOH     0.4215 ****
5246 HC1     9.011802   13.341064   16.710913 H    824 MOH     0.0372 ****
5247 C1      9.494467   12.375149   16.563835 C    824 MOH     0.1166 ****
5248 HC2     8.721395   11.621114   16.416050 H    824 MOH     0.0372 ****
5249 HC3    10.059116   12.132649   17.463275 H    824 MOH     0.0372 ****
5250 O1     10.402639   12.402910   15.440949 O    824 MOH    -0.6497 ****
5251 HO1    11.113935   13.007117   15.670052 H    824 MOH     0.4215 ****
5252 HC1    12.710308   -0.784327   15.665809 H    825 MOH     0.0372 ****
5253 C1     12.544031   -0.697370   16.739905 C    825 MOH     0.1166 ****
5254 HC2    12.616200    0.358769   16.999413 H    825 MOH     0.0372 ****
5255 HC3    13.330960   -1.251363   17.252557 H    825 MOH     0.0372 ****
5256 O1     11.218435   -1.216253   16.973957 O    825 MOH    -0.6497 ****
5257 HO1    10.907243   -0.867609   17.812586 H    825 MOH     0.4215 ****
5258 HC1    11.576392   16.612766   24.846884 H    826 MOH     0.0372 ****
5259 C1     10.865097   15.786880   24.836277 C    826 MOH     0.1166 ****
5260 HC2    11.227095   15.055707   24.112907 H    826 MOH     0.0372 ****
5261 HC3     9.876096   16.159202   24.566162 H    826 MOH     0.0372 ****
5262 O1     10.801588   15.213291   26.121090 O    826 MOH    -0.6497 ****
5263 HO1    10.525615   15.897107   26.735566 H    826 MOH     0.4215 ****
5264 HC1     7.506073   18.142472    7.838844 H    827 MOH     0.0372 ****
5265 C1      6.925259   18.523776    8.678887 C    827 MOH     0.1166 ****
5266 HC2     7.222594   19.530925    8.970922 H    827 MOH     0.0372 ****
5267 HC3     7.133105   17.868538    9.525294 H    827 MOH     0.0372 ****
5268 O1      5.545969   18.480094    8.393923 O    827 MOH    -0.6497 ****
5269 HO1     5.140669   17.805259    8.943345 H    827 MOH     0.4215 ****
5270 HC1    -3.916225    7.785622   18.864760 H    828 MOH     0.0372 ****
5271 C1     -4.307668    7.016482   18.200080 C    828 MOH     0.1166 ****
5272 HC2    -3.808260    7.050366   17.232051 H    828 MOH     0.0372 ****
5273 HC3    -5.379230    7.178965   18.075629 H    828 MOH     0.0372 ****
5274 O1     -4.166795    5.749687   18.784857 O    828 MOH    -0.6497 ****
5275 HO1    -4.613087    5.749279   19.634092 H    828 MOH     0.4215 ****
5276 HC1    12.303854    5.353687   14.484234 H    829 MOH     0.0372 ****
5277 C1     12.287111    4.346538   14.066334 C    829 MOH     0.1166 ****
5278 HC2    12.788828    3.688034   14.774148 H    829 MOH     0.0372 ****
5279 HC3    12.838480    4.317961   13.125882 H    829 MOH     0.0372 ****
5280 O1     10.944194    3.910937   13.917134 O    829 MOH    -0.6497 ****
5281 HO1    10.452291    4.171808   14.699902 H    829 MOH     0.4215 ****
5282 HC1     6.438552    9.144680   13.615907 H    830 MOH     0.0372 ****
5283 C1      5.375073    9.345538   13.484385 C    830 MOH     0.1166 ****
5284 HC2     4.793104    8.424530   13.511255 H    830 MOH     0.0372 ****
5285 HC3     5.209951    9.816249   12.514941 H    830 MOH     0.0372 ****
5286 O1      4.924740   10.235928   14.463728 O    830 MOH    -0.6497 ****
5287 HO1     5.035014   11.130400   14.133509 H    830 MOH     0.4215 ****
5288 HC1    10.151492   12.072229   10.819299 H    831 MOH     0.0372 ****
5289 C1      9.747347   12.418015    9.868241 C    831 MOH     0.1166 ****
5290 HC2     8.814349   11.894641    9.656109 H    831 MOH     0.0372 ****
5291 HC3    10.468457   12.273087    9.064260 H    831 MOH     0.0372 ****
5292 O1      9.500818   13.784014   10.022390 O    831 MOH    -0.6497 ****
5293 HO1    10.325274   14.239619   10.210481 H    831 MOH     0.4215 ****
5294 HC1     5.918937    0.816415   16.022898 H    832 MOH     0.0372 ****
5295 C1      5.733030    1.402251   15.122751 C    832 MOH     0.1166 ****
5296 HC2     5.750928    0.778448   14.228968 H    832 MOH     0.0372 ****
5297 HC3     6.480699    2.187721   15.013857 H    832 MOH     0.0372 ****
5298 O1      4.490573    1.990537   15.252152 O    832 MOH    -0.6497 ****
5299 HO1     4.192082    2.101172   14.346348 H    832 MOH     0.4215 ****
5300 HC1     7.103660    4.391445   17.442062 H    833 MOH     0.0372 ****
5301 C1      7.857679    3.637819   17.214373 C    833 MOH     0.1166 ****
5302 HC2     7.371550    2.748246   16.814858 H    833 MOH     0.0372 ****
5303 HC3     8.346695    3.348371   18.144219 H    833 MOH     0.0372 ****
5304 O1      8.791832    4.179973   16.269679 O    833 MOH    -0.6497 ****
5305 HO1     9.008338    5.077711   16.529187 H    833 MOH     0.4215 ****
5306 HC1     5.349092   12.744205    8.355739 H    834 MOH     0.0372 ****
5307 C1      5.111801   12.457615    9.381044 C    834 MOH     0.1166 ****
5308 HC2     5.873904   11.795028    9.790459 H    834 MOH     0.0372 ****
5309 HC3     4.158596   11.928933    9.361952 H    834 MOH     0.0372 ****
5310 O1      5.010188   13.583972   10.218966 O    834 MOH    -0.6497 ****
5311 HO1     5.783837   14.140414   10.099465 H    834 MOH     0.4215 ****
5312 HC1     3.040269   -2.238099   14.707680 H    835 MOH     0.0372 ****
5313 C1      2.633237   -1.237482   14.562723 C    835 MOH     0.1166 ****
5314 HC2     1.587655   -1.283206   14.257253 H    835 MOH     0.0372 ****
5315 HC3     3.189802   -0.779836   13.746014 H    835 MOH     0.0372 ****
5316 O1      2.787967   -0.413637   15.719549 O    835 MOH    -0.6497 ****
5317 HO1     3.070868    0.466546   15.459334 H    835 MOH     0.4215 ****
5318 HC1     2.446175    2.167309   16.930116 H    836 MOH     0.0372 ****
5319 C1      2.534510    3.153228   17.386200 C    836 MOH     0.1166 ****
5320 HC2     1.933488    3.185072   18.294125 H    836 MOH     0.0372 ****
5321 HC3     2.182326    3.888483   16.662830 H    836 MOH     0.0372 ****
5322 O1      3.874540    3.356944   17.693792 O    836 MOH    -0.6497 ****
5323 HO1     4.359514    2.890316   17.010019 H    836 MOH     0.4215 ****
5324 HC1    12.391034   13.959560    9.152649 H    837 MOH     0.0372 ****
5325 C1     12.811345   14.843010    9.633481 C    837 MOH     0.1166 ****
5326 HC2    13.064801   15.584797    8.876170 H    837 MOH     0.0372 ****
5327 HC3    13.698155   14.560094   10.199874 H    837 MOH     0.0372 ****
5328 O1     11.806178   15.339440   10.456554 O    837 MOH    -0.6497 ****
5329 HO1    12.162403   15.535807   11.325588 H    837 MOH     0.4215 ****
5330 HC1     6.742239   16.267388   21.728543 H    838 MOH     0.0372 ****
5331 C1      6.699515   17.141448   21.078712 C    838 MOH     0.1166 ****
5332 HC2     7.500299   17.841594   21.317007 H    838 MOH     0.0372 ****
5333 HC3     5.760166   17.657474   21.273873 H    838 MOH     0.0372 ****
5334 O1      6.700092   16.787088   19.687126 O    838 MOH    -0.6497 ****
5335 HO1     6.809211   17.579498   19.156088 H    838 MOH     0.4215 ****
5336 HC1     4.409743   -2.670025   17.743996 H    839 MOH     0.0372 ****
5337 C1      5.485924   -2.661860   17.574291 C    839 MOH     0.1166 ****
5338 HC2     5.906235   -1.801681   18.094014 H    839 MOH     0.0372 ****
5339 HC3     5.689729   -2.601440   16.505145 H    839 MOH     0.0372 ****
5340 O1      6.079440   -3.806589   18.074922 O    839 MOH    -0.6497 ****
5341 HO1     5.617560   -4.067867   18.873953 H    839 MOH     0.4215 ****
5342 HC1    11.850634    4.421247   22.256752 H    840 MOH     0.0372 ****
5343 C1     11.925689    5.463097   21.947039 C    840 MOH     0.1166 ****
5344 HC2    12.964342    5.687634   21.703794 H    840 MOH     0.0372 ****
5345 HC3    11.563691    6.064447   22.782132 H    840 MOH     0.0372 ****
5346 O1     11.037725    5.620681   20.870822 O    840 MOH    -0.6497 ****
5347 HO1    11.404919    5.100164   20.153109 H    840 MOH     0.4215 ****
5348 HC1     1.575531    0.508596   22.805466 H    841 MOH     0.0372 ****
5349 C1      2.567996    0.529417   22.355039 C    841 MOH     0.1166 ****
5350 HC2     3.091075    1.440627   22.644953 H    841 MOH     0.0372 ****
5351 HC3     2.507952    0.473895   21.268923 H    841 MOH     0.0372 ****
5352 O1      3.302963   -0.535295   22.803345 O    841 MOH    -0.6497 ****
5353 HO1     2.856094   -1.331379   22.507775 H    841 MOH     0.4215 ****
5354 HC1    10.473076   12.894441    6.278260 H    842 MOH     0.0372 ****
5355 C1     11.216703   12.373516    5.675805 C    842 MOH     0.1166 ****
5356 HC2    12.132381   12.963026    5.627721 H    842 MOH     0.0372 ****
5357 HC3    10.880685   12.252266    4.645550 H    842 MOH     0.0372 ****
5358 O1     11.555030   11.144688    6.259875 O    842 MOH    -0.6497 ****
5359 HO1    10.851241   10.873203    6.853138 H    842 MOH     0.4215 ****
5360 HC1    11.188990    7.217340   10.938093 H    843 MOH     0.0372 ****
5361 C1     11.149731    6.147729   10.733032 C    843 MOH     0.1166 ****
5362 HC2    10.371462    5.719477   11.364479 H    843 MOH     0.0372 ****
5363 HC3    12.118524    5.711312   10.976984 H    843 MOH     0.0372 ****
5364 O1     10.861055    5.855832    9.364781 O    843 MOH    -0.6497 ****
5365 HO1    11.290604    5.041377    9.092545 H    843 MOH     0.4215 ****
5366 HC1    15.350531    5.897473    8.691615 H    844 MOH     0.0372 ****
5367 C1     14.828029    6.826646    8.919304 C    844 MOH     0.1166 ****
5368 HC2    13.795727    6.613541    9.197904 H    844 MOH     0.0372 ****
5369 HC3    14.868444    7.472903    8.043198 H    844 MOH     0.0372 ****
5370 O1     15.515653    7.390029    9.985621 O    844 MOH    -0.6497 ****
5371 HO1    15.978111    6.674778   10.428269 H    844 MOH     0.4215 ****
5372 HC1     8.750840    1.111579   18.331602 H    845 MOH     0.0372 ****
5373 C1      9.001987    0.591062   19.255791 C    845 MOH     0.1166 ****
5374 HC2     8.335148   -0.262585   19.376706 H    845 MOH     0.0372 ****
5375 HC3     8.879012    1.260997   20.106440 H    845 MOH     0.0372 ****
5376 O1     10.342017    0.160360   19.158917 O    845 MOH    -0.6497 ****
5377 HO1    10.531966   -0.395266   19.917642 H    845 MOH     0.4215 ****
5378 HC1    10.223661    8.042001    8.310485 H    846 MOH     0.0372 ****
5379 C1      9.286621    8.297973    7.817631 C    846 MOH     0.1166 ****
5380 HC2     8.448309    7.966067    8.430693 H    846 MOH     0.0372 ****
5381 HC3     9.268146    7.799094    6.848895 H    846 MOH     0.0372 ****
5382 O1      9.256022    9.681527    7.600549 O    846 MOH    -0.6497 ****
5383 HO1     8.339767    9.922801    7.448521 H    846 MOH     0.4215 ****
5384 HC1    12.735134    0.683734   13.275789 H    847 MOH     0.0372 ****
5385 C1     13.606356    1.187104   12.856474 C    847 MOH     0.1166 ****
5386 HC2    13.308443    2.136282   12.413118 H    847 MOH     0.0372 ****
5387 HC3    14.045142    0.575549   12.067343 H    847 MOH     0.0372 ****
5388 O1     14.575150    1.462264   13.842181 O    847 MOH    -0.6497 ****
5389 HO1    15.005276    0.624130   14.025322 H    847 MOH     0.4215 ****
5390 HC1    -3.979156   14.576015   15.976229 H    848 MOH     0.0372 ****
5391 C1     -3.116595   15.038969   15.496811 C    848 MOH     0.1166 ****
5392 HC2    -2.329666   15.153687   16.242808 H    848 MOH     0.0372 ****
5393 HC3    -3.433560   16.031012   15.174370 H    848 MOH     0.0372 ****
5394 O1     -2.733811   14.251458   14.337863 O    848 MOH    -0.6497 ****
5395 HO1    -3.427786   14.297590   13.676718 H    848 MOH     0.4215 ****
5396 HC1     2.707137   10.013433   22.236953 H    849 MOH     0.0372 ****
5397 C1      3.315087   10.884226   21.988758 C    849 MOH     0.1166 ****
5398 HC2     4.364710   10.614782   21.874207 H    849 MOH     0.0372 ****
5399 HC3     3.258507   11.606417   22.804052 H    849 MOH     0.0372 ****
5400 O1      2.920180   11.446384   20.778898 O    849 MOH    -0.6497 ****
5401 HO1     3.201927   10.847892   20.083105 H    849 MOH     0.4215 ****
5402 HC1     8.287805   16.263306   11.549034 H    850 MOH     0.0372 ****
5403 C1      7.272823   15.879960   11.445089 C    850 MOH     0.1166 ****
5404 HC2     6.551713   16.697274   11.466302 H    850 MOH     0.0372 ****
5405 HC3     7.037842   15.185122   12.251191 H    850 MOH     0.0372 ****
5406 O1      7.145229   15.167975   10.262806 O    850 MOH    -0.6497 ****
5407 HO1     7.865762   14.534782   10.230987 H    850 MOH     0.4215 ****
5408 HC1     7.821306    1.929300   11.621866 H    851 MOH     0.0372 ****
5409 C1      7.323053    1.153628   11.042038 C    851 MOH     0.1166 ****
5410 HC2     8.049937    0.408167   10.719597 H    851 MOH     0.0372 ****
5411 HC3     6.860595    1.627604   10.175832 H    851 MOH     0.0372 ****
5412 O1      6.347908    0.522884   11.838947 O    851 MOH    -0.6497 ****
5413 HO1     6.819604    0.153828   12.588481 H    851 MOH     0.4215 ****
5414 HC1    11.161855    7.981173   18.808899 H    852 MOH     0.0372 ****
5415 C1     10.539471    8.875645   18.799707 C    852 MOH     0.1166 ****
5416 HC2    10.983454    9.662747   19.409233 H    852 MOH     0.0372 ****
5417 HC3     9.567791    8.597627   19.209121 H    852 MOH     0.0372 ****
5418 O1     10.359915    9.328392   17.478124 O    852 MOH    -0.6497 ****
5419 HO1    11.217280    9.603959   17.145077 H    852 MOH     0.4215 ****
5420 HC1     7.145806   13.628063    7.328313 H    853 MOH     0.0372 ****
5421 C1      7.738745   13.289625    6.479078 C    853 MOH     0.1166 ****
5422 HC2     8.105940   12.293907    6.727272 H    853 MOH     0.0372 ****
5423 HC3     8.585718   13.959560    6.327050 H    853 MOH     0.0372 ****
5424 O1      6.934496   13.238594    5.308816 O    853 MOH    -0.6497 ****
5425 HO1     7.341528   12.588254    4.731110 H    853 MOH     0.4215 ****
5426 HC1     2.902282   13.948946   12.990824 H    854 MOH     0.0372 ****
5427 C1      3.083570   12.910771   13.270131 C    854 MOH     0.1166 ****
5428 HC2     2.424236   12.273495   12.681112 H    854 MOH     0.0372 ****
5429 HC3     2.858981   12.756045   14.325842 H    854 MOH     0.0372 ****
5430 O1      4.413785   12.515178   13.029008 O    854 MOH    -0.6497 ****
5431 HO1     4.593341   12.623364   12.092092 H    854 MOH     0.4215 ****
5432 HC1     6.790736    8.160802   16.649395 H    855 MOH     0.0372 ****
5433 C1      7.244533    9.040169   17.106186 C    855 MOH     0.1166 ****
5434 HC2     8.081691    9.356969   16.483932 H    855 MOH     0.0372 ****
5435 HC3     7.548220    8.791137   18.123005 H    855 MOH     0.0372 ****
5436 O1      6.294215   10.037927   17.070830 O    855 MOH    -0.6497 ****
5437 HO1     5.966280   10.093449   16.169976 H    855 MOH     0.4215 ****
5438 HC1    -1.376461   19.633395   14.320185 H    856 MOH     0.0372 ****
5439 C1     -2.284056   19.569709   14.919812 C    856 MOH     0.1166 ****
5440 HC2    -2.894892   18.723002   14.607270 H    856 MOH     0.0372 ****
5441 HC3    -2.833116   20.501739   14.787583 H    856 MOH     0.0372 ****
5442 O1     -1.912242   19.386405   16.244223 O    856 MOH    -0.6497 ****
5443 HO1    -1.385121   18.583789   16.242808 H    856 MOH     0.4215 ****
5444 HC1    14.153684   11.479860   22.026235 H    857 MOH     0.0372 ****
5445 C1     13.900804   12.344530   22.640004 C    857 MOH     0.1166 ****
5446 HC2    14.708518   12.527834   23.347817 H    857 MOH     0.0372 ****
5447 HC3    12.982818   12.111829   23.178819 H    857 MOH     0.0372 ****
5448 O1     13.708547   13.452924   21.783697 O    857 MOH    -0.6497 ****
5449 HO1    13.023232   13.181848   21.168514 H    857 MOH     0.4215 ****
5450 HC1    10.413032    4.220389   18.492115 H    858 MOH     0.0372 ****
5451 C1     11.235756    3.529633   18.306853 C    858 MOH     0.1166 ****
5452 HC2    11.511152    3.650883   17.259628 H    858 MOH     0.0372 ****
5453 HC3    10.927451    2.489825   18.413626 H    858 MOH     0.0372 ****
5454 O1     12.325793    3.840310   19.191444 O    858 MOH    -0.6497 ****
5455 HO1    12.936630    3.099748   19.204172 H    858 MOH     0.4215 ****
5456 HC1    15.247185    5.178140   17.427212 H    859 MOH     0.0372 ****
5457 C1     14.415801    5.861547   17.257507 C    859 MOH     0.1166 ****
5458 HC2    13.493773    5.401452   17.614596 H    859 MOH     0.0372 ****
5459 HC3    14.345364    6.049750   16.186240 H    859 MOH     0.0372 ****
5460 O1     14.743736    7.082210   17.909459 O    859 MOH    -0.6497 ****
5461 HO1    15.356882    6.885026   18.621516 H    859 MOH     0.4215 ****
5462 HC1     7.753756    7.407584   25.910372 H    860 MOH     0.0372 ****
5463 C1      6.862327    8.034245   25.878553 C    860 MOH     0.1166 ****
5464 HC2     5.973785    7.403501   25.838247 H    860 MOH     0.0372 ****
5465 HC3     6.871565    8.652333   24.980527 H    860 MOH     0.0372 ****
5466 O1      6.872720    8.881768   27.000024 O    860 MOH    -0.6497 ****
5467 HO1     7.628471    9.461889   26.883351 H    860 MOH     0.4215 ****
5468 HC1    15.007008    8.004443   13.449737 H    861 MOH     0.0372 ****
5469 C1     13.997222    7.683560   13.193764 C    861 MOH     0.1166 ****
5470 HC2    13.299783    8.114261   13.912892 H    861 MOH     0.0372 ****
5471 HC3    13.915816    6.597211   13.228412 H    861 MOH     0.0372 ****
5472 O1     13.642152    8.142839   11.921679 O    861 MOH    -0.6497 ****
5473 HO1    14.240864    7.735407   11.292354 H    861 MOH     0.4215 ****
5474 HC1     9.410751    8.669479   24.496866 H    862 MOH     0.0372 ****
5475 C1      9.635341    9.735415   24.547071 C    862 MOH     0.1166 ****
5476 HC2     9.276229   10.283285   23.675915 H    862 MOH     0.0372 ****
5477 HC3    10.721337    9.781956   24.474946 H    862 MOH     0.0372 ****
5478 O1      9.274497   10.333499   25.813499 O    862 MOH    -0.6497 ****
5479 HO1     9.202328   11.282268   25.687634 H    862 MOH     0.4215 ****
5480 HC1     8.497383   -4.781486   15.864506 H    863 MOH     0.0372 ****
5481 C1      9.078775   -4.024185   16.391301 C    863 MOH     0.1166 ****
5482 HC2    10.132439   -4.268317   16.254122 H    863 MOH     0.0372 ****
5483 HC3     8.848990   -4.013570   17.456204 H    863 MOH     0.0372 ****
5484 O1      8.950603   -2.763922   15.839051 O    863 MOH    -0.6497 ****
5485 HO1     9.749079   -2.287497   16.080174 H    863 MOH     0.4215 ****
5486 HC1     3.652837    6.575574   20.946483 H    864 MOH     0.0372 ****
5487 C1      3.998093    5.732541   20.348978 C    864 MOH     0.1166 ****
5488 HC2     4.738256    5.200593   20.947897 H    864 MOH     0.0372 ****
5489 HC3     4.439766    6.118336   19.430446 H    864 MOH     0.0372 ****
5490 O1      2.945583    4.814799   20.015223 O    864 MOH    -0.6497 ****
5491 HO1     3.224443    4.301631   19.253669 H    864 MOH     0.4215 ****
5492 HC1    10.810249   15.112862   14.723943 H    865 MOH     0.0372 ****
5493 C1     10.317769   15.549279   13.854909 C    865 MOH     0.1166 ****
5494 HC2     9.375533   16.036728   14.105225 H    865 MOH     0.0372 ****
5495 HC3    10.065467   14.714820   13.200128 H    865 MOH     0.0372 ****
5496 O1     11.155504   16.474370   13.154873 O    865 MOH    -0.6497 ****
5497 HO1    10.614527   17.174108   12.782935 H    865 MOH     0.4215 ****
5498 HC1     8.717931   -5.104002   11.201844 H    866 MOH     0.0372 ****
5499 C1      8.685022   -4.018878   11.102849 C    866 MOH     0.1166 ****
5500 HC2     9.130159   -3.549800   11.980369 H    866 MOH     0.0372 ****
5501 HC3     7.647524   -3.693096   11.027896 H    866 MOH     0.0372 ****
5502 O1      9.370914   -3.641656    9.937537 O    866 MOH    -0.6497 ****
5503 HO1     9.472528   -2.688397    9.977842 H    866 MOH     0.4215 ****
5504 HC1    17.151287    3.712937   12.384834 H    867 MOH     0.0372 ****
5505 C1     16.245424    4.037494   11.873596 C    867 MOH     0.1166 ****
5506 HC2    15.359769    3.644759   12.372813 H    867 MOH     0.0372 ****
5507 HC3    16.252930    3.689258   10.840513 H    867 MOH     0.0372 ****
5508 O1     16.152471    5.429621   11.887738 O    867 MOH    -0.6497 ****
5509 HO1    16.422671    5.714986   12.763843 H    867 MOH     0.4215 ****
5510 HC1     9.685570    8.276744   14.369683 H    868 MOH     0.0372 ****
5511 C1     10.348946    7.454940   14.639090 C    868 MOH     0.1166 ****
5512 HC2    11.365082    7.841143   14.716872 H    868 MOH     0.0372 ****
5513 HC3    10.335089    6.672329   13.880365 H    868 MOH     0.0372 ****
5514 O1      9.970781    7.027913   15.926025 O    868 MOH    -0.6497 ****
5515 HO1    10.024475    7.797053   16.497367 H    868 MOH     0.4215 ****
5516 HC1    13.465482   14.475995   18.473023 H    869 MOH     0.0372 ****
5517 C1     13.126000   13.730125   17.753896 C    869 MOH     0.1166 ****
5518 HC2    12.619664   12.892808   18.235435 H    869 MOH     0.0372 ****
5519 HC3    14.012810   13.333308   17.258921 H    869 MOH     0.0372 ****
5520 O1     12.284801   14.350662   16.799302 O    869 MOH    -0.6497 ****
5521 HO1    12.814231   15.035703   16.383523 H    869 MOH     0.4215 ****
5522 HC1     4.171875    7.239794    9.492060 H    870 MOH     0.0372 ****
5523 C1      3.541409    6.926259   10.323618 C    870 MOH     0.1166 ****
5524 HC2     2.565109    6.613541    9.953094 H    870 MOH     0.0372 ****
5525 HC3     3.371090    7.753370   11.013754 H    870 MOH     0.0372 ****
5526 O1      4.143585    5.872162   11.019411 O    870 MOH    -0.6497 ****
5527 HO1     3.492911    5.517802   11.628937 H    870 MOH     0.4215 ****
5528 HC1     6.834037   11.972208   12.635857 H    871 MOH     0.0372 ****
5529 C1      7.490485   12.247775   13.461050 C    871 MOH     0.1166 ****
5530 HC2     6.943734   12.211850   14.404331 H    871 MOH     0.0372 ****
5531 HC3     7.836895   13.270437   13.310437 H    871 MOH     0.0372 ****
5532 O1      8.609389   11.375757   13.526104 O    871 MOH    -0.6497 ****
5533 HO1     9.214452   11.702356   14.196441 H    871 MOH     0.4215 ****
5534 HC1    10.610485   16.687067   20.403425 H    872 MOH     0.0372 ****
5535 C1     10.298716   16.268205   21.360847 C    872 MOH     0.1166 ****
5536 HC2     9.771595   17.014482   21.953403 H    872 MOH     0.0372 ****
5537 HC3    11.191300   15.934666   21.889056 H    872 MOH     0.0372 ****
5538 O1      9.484075   15.154095   21.133866 O    872 MOH    -0.6497 ****
5539 HO1     8.798183   15.395370   20.508077 H    872 MOH     0.4215 ****
5540 HC1     3.290261   22.081252   12.683940 H    873 MOH     0.0372 ****
5541 C1      2.382667   22.460923   12.214421 C    873 MOH     0.1166 ****
5542 HC2     2.513148   22.440919   11.131841 H    873 MOH     0.0372 ****
5543 HC3     2.239484   23.491750   12.536155 H    873 MOH     0.0372 ****
5544 O1      1.242400   21.667696   12.588480 O    873 MOH    -0.6497 ****
5545 HO1     0.469328   22.172700   12.326144 H    873 MOH     0.4215 ****
5546 HC1     5.447819   13.611325   19.195686 H    874 MOH     0.0372 ****
5547 C1      6.029788   13.853824   18.306146 C    874 MOH     0.1166 ****
5548 HC2     5.993415   13.032020   17.591261 H    874 MOH     0.0372 ****
5549 HC3     7.056894   13.997119   18.643436 H    874 MOH     0.0372 ****
5550 O1      5.563867   15.098165   17.774402 O    874 MOH    -0.6497 ****
5551 HO1     5.979559   15.775449   18.312510 H    874 MOH     0.4215 ****
5552 HC1     2.942119    9.045068   16.867184 H    875 MOH     0.0372 ****
5553 C1      3.104932    8.820939   17.921480 C    875 MOH     0.1166 ****
5554 HC2     3.672467    7.894216   18.013404 H    875 MOH     0.0372 ****
5555 HC3     2.121127    8.703364   18.375442 H    875 MOH     0.0372 ****
5556 O1      3.797752    9.897490   18.513328 O    875 MOH    -0.6497 ****
5557 HO1     4.636065    9.988121   18.055123 H    875 MOH     0.4215 ****
5558 HC1     0.877514    2.978906   21.626719 H    876 MOH     0.0372 ****
5559 C1      0.484339    3.413691   22.545251 C    876 MOH     0.1166 ****
5560 HC2     0.300164    4.478402   22.403830 H    876 MOH     0.0372 ****
5561 HC3     1.183510    3.269579   23.369031 H    876 MOH     0.0372 ****
5562 O1     -0.680177    2.752737   22.874056 O    876 MOH    -0.6497 ****
5563 HO1    -1.104529    3.202218   23.608740 H    876 MOH     0.4215 ****
5564 HC1     5.800003   16.220848    6.841117 H    877 MOH     0.0372 ****
5565 C1      4.952453   15.556220    7.010822 C    877 MOH     0.1166 ****
5566 HC2     4.087005   16.200027    7.167093 H    877 MOH     0.0372 ****
5567 HC3     5.185125   14.954462    7.889049 H    877 MOH     0.0372 ****
5568 O1      4.819085   14.854441    5.795306 O    877 MOH    -0.6497 ****
5569 HO1     5.664903   14.448642    5.590245 H    877 MOH     0.4215 ****
5570 HC1     3.688633   -2.585110   12.251191 H    878 MOH     0.0372 ****
5571 C1      4.723822   -2.280965   12.094920 C    878 MOH     0.1166 ****
5572 HC2     5.312719   -3.183602   11.927336 H    878 MOH     0.0372 ****
5573 HC3     5.096790   -1.724114   12.953348 H    878 MOH     0.0372 ****
5574 O1      4.721513   -1.549384   10.918294 O    878 MOH    -0.6497 ****
5575 HO1     5.358907   -0.840257   11.027896 H    878 MOH     0.4215 ****
5576 HC1    16.751183    2.606992   16.821929 H    879 MOH     0.0372 ****
5577 C1     17.135121    3.203851   15.994614 C    879 MOH     0.1166 ****
5578 HC2    17.822745    2.586580   15.416201 H    879 MOH     0.0372 ****
5579 HC3    17.636261    4.065663   16.436556 H    879 MOH     0.0372 ****
5580 O1     16.069910    3.643534   15.207604 O    879 MOH    -0.6497 ****
5581 HO1    15.540479    2.887459   14.945975 H    879 MOH     0.4215 ****
5582 HC1     7.217398   11.603151   21.422366 H    880 MOH     0.0372 ****
5583 C1      7.280906   10.680102   20.846074 C    880 MOH     0.1166 ****
5584 HC2     8.312631   10.475978   20.560402 H    880 MOH     0.0372 ****
5585 HC3     6.663719   10.791962   19.955119 H    880 MOH     0.0372 ****
5586 O1      6.763023    9.626821   21.611163 O    880 MOH    -0.6497 ****
5587 HO1     7.013016    8.802160   21.186899 H    880 MOH     0.4215 ****
5588 HC1    -4.833634   10.910762   12.939913 H    881 MOH     0.0372 ****
5589 C1     -4.999911   11.981189   13.058706 C    881 MOH     0.1166 ****
5590 HC2    -4.646573   12.302072   14.038756 H    881 MOH     0.0372 ****
5591 HC3    -6.066854   12.194295   12.986582 H    881 MOH     0.0372 ****
5592 O1     -4.312864   12.695624   12.048958 O    881 MOH    -0.6497 ****
5593 HO1    -4.403508   12.165717   11.254170 H    881 MOH     0.4215 ****
5594 HC1     1.829565   17.226772   10.090979 H    882 MOH     0.0372 ****
5595 C1      2.700787   16.571533   10.071887 C    882 MOH     0.1166 ****
5596 HC2     2.700209   15.999985    9.144163 H    882 MOH     0.0372 ****
5597 HC3     2.673074   15.862406   10.899910 H    882 MOH     0.0372 ****
5598 O1      3.879159   17.356186   10.145427 O    882 MOH    -0.6497 ****
5599 HO1     3.849714   17.866905   10.957892 H    882 MOH     0.4215 ****
5600 HC1    16.643218    8.063639   15.557622 H    883 MOH     0.0372 ****
5601 C1     17.283500    7.188354   15.666517 C    883 MOH     0.1166 ****
5602 HC2    17.133389    6.787455   16.669194 H    883 MOH     0.0372 ****
5603 HC3    18.322153    7.501073   15.560451 H    883 MOH     0.0372 ****
5604 O1     16.904181    6.246526   14.663132 O    883 MOH    -0.6497 ****
5605 HO1    16.833167    5.373282   15.055576 H    883 MOH     0.4215 ****
5606 HC1    14.778954   10.277161   19.978454 H    884 MOH     0.0372 ****
5607 C1     15.637474   10.638869   19.412768 C    884 MOH     0.1166 ****
5608 HC2    15.289332   11.158161   18.520399 H    884 MOH     0.0372 ****
5609 HC3    16.266786    9.798286   19.119319 H    884 MOH     0.0372 ****
5610 O1     16.386875   11.528442   20.208263 O    884 MOH    -0.6497 ****
5611 HO1    16.554306   11.109987   21.056084 H    884 MOH     0.4215 ****
5612 HC1    15.578007   11.598252   10.046432 H    885 MOH     0.0372 ****
5613 C1     15.131138   12.012216    9.142749 C    885 MOH     0.1166 ****
5614 HC2    14.103455   12.331058    9.314576 H    885 MOH     0.0372 ****
5615 HC3    15.161738   11.239810    8.373417 H    885 MOH     0.0372 ****
5616 O1     15.941738   13.076519    8.754548 O    885 MOH    -0.6497 ****
5617 HO1    16.123603   13.622756    9.522466 H    885 MOH     0.4215 ****
5618 HC1     8.803956    9.345946    4.640600 H    886 MOH     0.0372 ****
5619 C1      7.879619    9.861156    4.378971 C    886 MOH     0.1166 ****
5620 HC2     7.166591    9.814207    5.202750 H    886 MOH     0.0372 ****
5621 HC3     7.443719    9.414940    3.485895 H    886 MOH     0.0372 ****
5622 O1      8.117487   11.210416    4.099664 O    886 MOH    -0.6497 ****
5623 HO1     8.622091   11.240627    3.283662 H    886 MOH     0.4215 ****
5624 HC1     0.525908   16.539281   14.692830 H    887 MOH     0.0372 ****
5625 C1      0.155249   16.142464   15.637525 C    887 MOH     0.1166 ****
5626 HC2     1.009728   16.019581   16.302912 H    887 MOH     0.0372 ****
5627 HC3    -0.316446   15.166751   15.521559 H    887 MOH     0.0372 ****
5628 O1     -0.699806   17.077761   16.199675 O    887 MOH    -0.6497 ****
5629 HO1    -0.515054   17.079394   17.141541 H    887 MOH     0.4215 ****
5630 HC1     0.409861    3.484726   26.844460 H    888 MOH     0.0372 ****
5631 C1      1.304176    3.042185   27.284281 C    888 MOH     0.1166 ****
5632 HC2     1.369994    3.315303   28.337163 H    888 MOH     0.0372 ****
5633 HC3     2.194450    3.412058   26.775164 H    888 MOH     0.0372 ****
5634 O1      1.252792    1.629646   27.168315 O    888 MOH    -0.6497 ****
5635 HO1     2.158077    1.321418   27.256704 H    888 MOH     0.4215 ****
5636 HC1    -0.185965   11.864430   20.431002 H    889 MOH     0.0372 ****
5637 C1     -0.252360   11.603968   21.487419 C    889 MOH     0.1166 ****
5638 HC2    -0.144396   10.525784   21.611163 H    889 MOH     0.0372 ****
5639 HC3    -1.236165   11.918727   21.836023 H    889 MOH     0.0372 ****
5640 O1      0.731445   12.322893   22.210790 O    889 MOH    -0.6497 ****
5641 HO1     1.554169   12.213891   21.727836 H    889 MOH     0.4215 ****
5642 HC1     7.360581   14.425372   25.279633 H    890 MOH     0.0372 ****
5643 C1      7.798212   13.521918   24.854662 C    890 MOH     0.1166 ****
5644 HC2     8.041854   13.717061   23.810972 H    890 MOH     0.0372 ****
5645 HC3     7.092690   12.695624   24.948000 H    890 MOH     0.0372 ****
5646 O1      8.934437   13.224305   25.602074 O    890 MOH    -0.6497 ****
5647 HO1     9.562017   13.950171   25.553991 H    890 MOH     0.4215 ****
5648 HC1     4.140698    7.227546   24.646773 H    891 MOH     0.0372 ****
5649 C1      3.730202    6.271021   24.969920 C    891 MOH     0.1166 ****
5650 HC2     4.509048    5.508413   24.991134 H    891 MOH     0.0372 ****
5651 HC3     2.945006    5.992187   24.267763 H    891 MOH     0.0372 ****
5652 O1      3.134377    6.415540   26.225742 O    891 MOH    -0.6497 ****
5653 HO1     3.755028    6.864614   26.804155 H    891 MOH     0.4215 ****
5654 HC1     0.523599   17.953045   11.617623 H    892 MOH     0.0372 ****
5655 C1      1.089979   18.258007   12.497971 C    892 MOH     0.1166 ****
5656 HC2     1.475649   17.364351   12.989410 H    892 MOH     0.0372 ****
5657 HC3     0.435842   18.781789   13.194471 H    892 MOH     0.0372 ****
5658 O1      2.184636   19.072462   12.092799 O    892 MOH    -0.6497 ****
5659 HO1     1.833607   19.947746   11.916022 H    892 MOH     0.4215 ****
5660 HC1    -7.559882    8.548229   11.014461 H    893 MOH     0.0372 ****
5661 C1     -7.001007    9.180606   11.703890 C    893 MOH     0.1166 ****
5662 HC2    -6.955974   10.181223   11.273262 H    893 MOH     0.0372 ****
5663 HC3    -5.987757    8.786238   11.784500 H    893 MOH     0.0372 ****
5664 O1     -7.666115    9.192853   12.992238 O    893 MOH    -0.6497 ****
5665 HO1    -7.199038    8.574766   13.557924 H    893 MOH     0.4215 ****
5666 HC1     8.451773   -6.657386   14.364733 H    894 MOH     0.0372 ****
5667 C1      9.289508   -6.429176   13.705002 C    894 MOH     0.1166 ****
5668 HC2     9.646888   -5.427743   13.940469 H    894 MOH     0.0372 ****
5669 HC3     8.939056   -6.474083   12.674041 H    894 MOH     0.0372 ****
5670 O1     10.370308   -7.371004   13.909356 O    894 MOH    -0.6497 ****
5671 HO1    11.203424   -6.982760   13.631463 H    894 MOH     0.4215 ****
5672 HC1     9.341469   12.211441   21.477520 H    895 MOH     0.0372 ****
5673 C1     10.266962   12.511096   21.971080 C    895 MOH     0.1166 ****
5674 HC2    10.710944   11.657040   22.483026 H    895 MOH     0.0372 ****
5675 HC3    10.021011   13.263089   22.720614 H    895 MOH     0.0372 ****
5676 O1     11.149153   13.010383   20.945069 O    895 MOH    -0.6497 ****
5677 HO1    10.958628   13.948538   20.870115 H    895 MOH     0.4215 ****
5678 HC1    -1.758667    3.979523   20.679903 H    896 MOH     0.0372 ****
5679 C1     -1.275425    3.828879   19.714703 C    896 MOH     0.1166 ****
5680 HC2    -0.819895    2.839285   19.694904 H    896 MOH     0.0372 ****
5681 HC3    -0.515054    4.598019   19.576110 H    896 MOH     0.0372 ****
5682 O1     -2.306572    3.878277   18.728289 O    896 MOH    -0.6497 ****
5683 HO1    -2.819259    4.679260   18.858396 H    896 MOH     0.4215 ****
5684 HC1     7.758375   16.080410   16.825464 H    897 MOH     0.0372 ****
5685 C1      8.704075   16.423339   17.245486 C    897 MOH     0.1166 ****
5686 HC2     8.590337   17.397828   17.721369 H    897 MOH     0.0372 ****
5687 HC3     9.433846   16.536832   16.443627 H    897 MOH     0.0372 ****
5688 O1      9.145748   15.501106   18.217758 O    897 MOH    -0.6497 ****
5689 HO1     9.977132   15.112862   17.935622 H    897 MOH     0.4215 ****
5690 HC1     7.676391    8.014649   11.896223 H    898 MOH     0.0372 ****
5691 C1      8.458124    8.687850   11.544791 C    898 MOH     0.1166 ****
5692 HC2     9.017576    8.253066   10.716769 H    898 MOH     0.0372 ****
5693 HC3     9.143438    8.892791   12.366449 H    898 MOH     0.0372 ****
5694 O1      7.884237    9.887284   11.099314 O    898 MOH    -0.6497 ****
5695 HO1     8.079382   10.530683   11.785207 H    898 MOH     0.4215 ****
5696 HC1    12.576248   30.755548   12.167752 H    899 MOH     0.0372 ****
5697 C1     11.539904   30.894353   12.474636 C    899 MOH     0.1166 ****
5698 HC2    10.976410   31.258510   11.616209 H    899 MOH     0.0372 ****
5699 HC3    11.470044   31.644305   13.263060 H    899 MOH     0.0372 ****
5700 O1     11.014515   29.651645   12.891829 O    899 MOH    -0.6497 ****
5701 HO1    10.251835   29.803922   13.453979 H    899 MOH     0.4215 ****
5702 HC1     7.074677   20.214578   16.259072 H    900 MOH     0.0372 ****
5703 C1      6.273892   19.820618   16.884861 C    900 MOH     0.1166 ****
5704 HC2     5.708089   19.090262   16.305741 H    900 MOH     0.0372 ****
5705 HC3     5.601279   20.597514   17.246193 H    900 MOH     0.0372 ****
5706 O1      6.770991   19.079647   17.929258 O    900 MOH    -0.6497 ****
5707 HO1     7.315432   19.675690   18.448274 H    900 MOH     0.4215 ****
5708 HC1    18.805280   15.349074    7.352355 H    901 MOH     0.0372 ****
5709 C1     18.618218   14.363155    7.777326 C    901 MOH     0.1166 ****
5710 HC2    18.226197   14.457868    8.789903 H    901 MOH     0.0372 ****
5711 HC3    19.575465   13.846721    7.845916 H    901 MOH     0.0372 ****
5712 O1     17.777019   13.559314    6.928091 O    901 MOH    -0.6497 ****
5713 HO1    17.061105   13.213119    7.465492 H    901 MOH     0.4215 ****
5714 HC1    21.435687   15.821009   13.989259 H    902 MOH     0.0372 ****
5715 C1     20.586983   16.255794   14.517468 C    902 MOH     0.1166 ****
5716 HC2    20.450728   17.282947   14.179471 H    902 MOH     0.0372 ****
5717 HC3    20.751527   16.243546   15.595099 H    902 MOH     0.0372 ****
5718 O1     19.421312   15.557689   14.183714 O    902 MOH    -0.6497 ****
5719 HO1    19.448448   14.757114   14.713337 H    902 MOH     0.4215 ****
5720 HC1    20.330062   22.896769    4.375435 H    903 MOH     0.0372 ****
5721 C1     19.537937   22.364413    4.901523 C    903 MOH     0.1166 ****
5722 HC2    19.565073   22.622018    5.960062 H    903 MOH     0.0372 ****
5723 HC3    19.703637   21.296844    4.759394 H    903 MOH     0.0372 ****
5724 O1     18.309336   22.780010    4.345737 O    903 MOH    -0.6497 ****
5725 HO1    17.614783   22.421159    4.903644 H    903 MOH     0.4215 ****
5726 HC1    11.687705   23.982709   21.221547 H    904 MOH     0.0372 ****
5727 C1     10.667528   23.689995   21.469742 C    904 MOH     0.1166 ****
5728 HC2    10.506447   23.747558   22.545251 H    904 MOH     0.0372 ****
5729 HC3    10.459104   22.667742   21.152958 H    904 MOH     0.0372 ****
5730 O1      9.781295   24.582426   20.868701 O    904 MOH    -0.6497 ****
5731 HO1    10.232783   24.958831   20.109268 H    904 MOH     0.4215 ****
5732 HC1    24.395185   28.955582   11.898344 H    905 MOH     0.0372 ****
5733 C1     24.443682   27.868008   11.847433 C    905 MOH     0.1166 ****
5734 HC2    24.065518   27.513240   10.889303 H    905 MOH     0.0372 ****
5735 HC3    23.836887   27.421385   12.635150 H    905 MOH     0.0372 ****
5736 O1     25.780248   27.433632   11.920972 O    905 MOH    -0.6497 ****
5737 HO1    25.747917   26.474249   11.942185 H    905 MOH     0.4215 ****
5738 HC1    15.484938   27.930878    6.324929 H    906 MOH     0.0372 ****
5739 C1     15.530549   27.476090    5.334979 C    906 MOH     0.1166 ****
5740 HC2    16.447959   26.897194    5.226085 H    906 MOH     0.0372 ****
5741 HC3    15.520157   28.253803    4.572011 H    906 MOH     0.0372 ****
5742 O1     14.427233   26.639589    5.117897 O    906 MOH    -0.6497 ****
5743 HO1    14.686463   25.752057    5.375284 H    906 MOH     0.4215 ****
5744 HC1    23.592091   23.374011    4.820206 H    907 MOH     0.0372 ****
5745 C1     23.790699   24.334619    5.294674 C    907 MOH     0.1166 ****
5746 HC2    24.855333   24.551807    5.211236 H    907 MOH     0.0372 ****
5747 HC3    23.561491   24.299510    6.359577 H    907 MOH     0.0372 ****
5748 O1     22.997420   25.330337    4.643429 O    907 MOH    -0.6497 ****
5749 HO1    23.044763   26.106417    5.206993 H    907 MOH     0.4215 ****
5750 HC1     6.286594   26.769412   17.425798 H    908 MOH     0.0372 ****
5751 C1      7.326979   26.796765   17.099822 C    908 MOH     0.1166 ****
5752 HC2     7.911257   26.157040   17.762381 H    908 MOH     0.0372 ****
5753 HC3     7.668193   27.830449   17.153562 H    908 MOH     0.0372 ****
5754 O1      7.393952   26.314623   15.776825 O    908 MOH    -0.6497 ****
5755 HO1     6.799281   25.561814   15.732984 H    908 MOH     0.4215 ****
5756 HC1     9.166994   22.087212   13.265889 H    909 MOH     0.0372 ****
5757 C1     10.081517   22.393399   12.758186 C    909 MOH     0.1166 ****
5758 HC2    10.676765   23.047821   13.395289 H    909 MOH     0.0372 ****
5759 HC3     9.806121   22.939635   11.855918 H    909 MOH     0.0372 ****
5760 O1     10.783575   21.253978   12.360085 O    909 MOH    -0.6497 ****
5761 HO1    11.718305   21.452795   12.449888 H    909 MOH     0.4215 ****
5762 HC1    22.433349   17.906750    9.832178 H    910 MOH     0.0372 ****
5763 C1     22.480691   18.630166   10.646765 C    910 MOH     0.1166 ****
5764 HC2    21.687412   19.357664   10.475646 H    910 MOH     0.0372 ****
5765 HC3    23.441402   19.143742   10.600096 H    910 MOH     0.0372 ****
5766 O1     22.295362   17.988400   11.940771 O    910 MOH    -0.6497 ****
5767 HO1    22.103682   18.664050   12.596259 H    910 MOH     0.4215 ****
5768 HC1     6.112811   21.749591    8.410187 H    911 MOH     0.0372 ****
5769 C1      6.155535   21.991274    9.472261 C    911 MOH     0.1166 ****
5770 HC2     7.192456   21.929220    9.803187 H    911 MOH     0.0372 ****
5771 HC3     5.557978   21.289495   10.054210 H    911 MOH     0.0372 ****
5772 O1      5.721945   23.285013    9.741669 O    911 MOH    -0.6497 ****
5773 HO1     4.952337   23.476481    9.200732 H    911 MOH     0.4215 ****
5774 HC1     3.509539   25.687146   16.125429 H    912 MOH     0.0372 ****
5775 C1      3.074794   24.801655   16.588584 C    912 MOH     0.1166 ****
5776 HC2     2.662566   24.126821   15.838343 H    912 MOH     0.0372 ****
5777 HC3     2.252647   25.087837   17.245486 H    912 MOH     0.0372 ****
5778 O1      3.980079   24.099060   17.384079 O    912 MOH    -0.6497 ****
5779 HO1     3.453536   23.381360   17.744703 H    912 MOH     0.4215 ****
5780 HC1     9.422183   23.859010    8.796974 H    913 MOH     0.0372 ****
5781 C1      8.881783   24.728579    8.423622 C    913 MOH     0.1166 ****
5782 HC2     8.438378   24.399122    7.483877 H    913 MOH     0.0372 ****
5783 HC3     9.604626   25.531603    8.277250 H    913 MOH     0.0372 ****
5784 O1      7.890473   25.067017    9.417107 O    913 MOH    -0.6497 ****
5785 HO1     7.254810   24.352990    9.499838 H    913 MOH     0.4215 ****
5786 HC1     7.865647   17.086987    4.487865 H    914 MOH     0.0372 ****
5787 C1      8.278452   18.094544    4.451096 C    914 MOH     0.1166 ****
5788 HC2     8.193004   18.565254    5.430439 H    914 MOH     0.0372 ****
5789 HC3     7.701679   18.682422    3.736918 H    914 MOH     0.0372 ****
5790 O1      9.617905   18.039022    4.019761 O    914 MOH    -0.6497 ****
5791 HO1     9.651391   17.378477    3.323968 H    914 MOH     0.4215 ****
5792 HC1    23.978915   15.243746   10.436755 H    915 MOH     0.0372 ****
5793 C1     23.298797   14.675056   11.071030 C    915 MOH     0.1166 ****
5794 HC2    23.653290   14.712207   12.101284 H    915 MOH     0.0372 ****
5795 HC3    23.243949   13.638514   10.739397 H    915 MOH     0.0372 ****
5796 O1     22.066154   15.298043   10.989005 O    915 MOH    -0.6497 ****
5797 HO1    22.168345   16.190882   11.324881 H    915 MOH     0.4215 ****
5798 HC1    17.846878   21.707133   15.420443 H    916 MOH     0.0372 ****
5799 C1     17.706582   21.552815   14.351298 C    916 MOH     0.1166 ****
5800 HC2    17.510283   22.507300   13.861980 H    916 MOH     0.0372 ****
5801 HC3    16.872311   20.873898   14.175228 H    916 MOH     0.0372 ****
5802 O1     18.882067   20.998414   13.799755 O    916 MOH    -0.6497 ****
5803 HO1    19.528700   20.897577   14.501912 H    916 MOH     0.4215 ****
5804 HC1    15.303073   21.500968    8.051683 H    917 MOH     0.0372 ****
5805 C1     15.141992   20.488104    8.420086 C    917 MOH     0.1166 ****
5806 HC2    14.390860   20.533011    9.207803 H    917 MOH     0.0372 ****
5807 HC3    16.066907   20.087612    8.835158 H    917 MOH     0.0372 ****
5808 O1     14.690504   19.641397    7.363669 O    917 MOH    -0.6497 ****
5809 HO1    15.095227   18.783259    7.513575 H    917 MOH     0.4215 ****
5810 HC1    24.308582   15.618110   15.665809 H    918 MOH     0.0372 ****
5811 C1     24.142305   15.705067   16.739905 C    918 MOH     0.1166 ****
5812 HC2    24.214474   16.761205   16.999413 H    918 MOH     0.0372 ****
5813 HC3    24.929234   15.151074   17.252557 H    918 MOH     0.0372 ****
5814 O1     22.816709   15.186183   16.973957 O    918 MOH    -0.6497 ****
5815 HO1    22.505517   15.534827   17.812586 H    918 MOH     0.4215 ****
5816 HC1     7.682049   24.188058   18.864760 H    919 MOH     0.0372 ****
5817 C1      7.290606   23.418918   18.200080 C    919 MOH     0.1166 ****
5818 HC2     7.790014   23.452803   17.232051 H    919 MOH     0.0372 ****
5819 HC3     6.219044   23.581401   18.075629 H    919 MOH     0.0372 ****
5820 O1      7.431479   22.152124   18.784857 O    919 MOH    -0.6497 ****
5821 HO1     6.985188   22.151716   19.634092 H    919 MOH     0.4215 ****
5822 HC1    23.902128   21.756123   14.484234 H    920 MOH     0.0372 ****
5823 C1     23.885385   20.748975   14.066334 C    920 MOH     0.1166 ****
5824 HC2    24.387102   20.090470   14.774148 H    920 MOH     0.0372 ****
5825 HC3    24.436754   20.720397   13.125882 H    920 MOH     0.0372 ****
5826 O1     22.542468   20.313374   13.917134 O    920 MOH    -0.6497 ****
5827 HO1    22.050565   20.574244   14.699902 H    920 MOH     0.4215 ****
5828 HC1    18.036826   25.547117   13.615907 H    921 MOH     0.0372 ****
5829 C1     16.973347   25.747975   13.484385 C    921 MOH     0.1166 ****
5830 HC2    16.391378   24.826967   13.511255 H    921 MOH     0.0372 ****
5831 HC3    16.808225   26.218685   12.514941 H    921 MOH     0.0372 ****
5832 O1     16.523014   26.638364   14.463728 O    921 MOH    -0.6497 ****
5833 HO1    16.633288   27.532836   14.133509 H    921 MOH     0.4215 ****
5834 HC1    21.749766   28.474665   10.819299 H    922 MOH     0.0372 ****
5835 C1     21.345621   28.820451    9.868241 C    922 MOH     0.1166 ****
5836 HC2    20.412623   28.297077    9.656109 H    922 MOH     0.0372 ****
5837 HC3    22.066731   28.675523    9.064260 H    922 MOH     0.0372 ****
5838 O1     21.099092   30.186450   10.022390 O    922 MOH    -0.6497 ****
5839 HO1    21.923548   30.642055   10.210481 H    922 MOH     0.4215 ****
5840 HC1    17.517211   17.218852   16.022898 H    923 MOH     0.0372 ****
5841 C1     17.331304   17.804688   15.122751 C    923 MOH     0.1166 ****
5842 HC2    17.349202   17.180884   14.228968 H    923 MOH     0.0372 ****
5843 HC3    18.078973   18.590158   15.013857 H    923 MOH     0.0372 ****
5844 O1     16.088847   18.392974   15.252152 O    923 MOH    -0.6497 ****
5845 HO1    15.790357   18.503609   14.346348 H    923 MOH     0.4215 ****
5846 HC1    18.701934   20.793882   17.442062 H    924 MOH     0.0372 ****
5847 C1     19.455953   20.040255   17.214373 C    924 MOH     0.1166 ****
5848 HC2    18.969824   19.150682   16.814858 H    924 MOH     0.0372 ****
5849 HC3    19.944969   19.750807   18.144219 H    924 MOH     0.0372 ****
5850 O1     20.390106   20.582409   16.269679 O    924 MOH    -0.6497 ****
5851 HO1    20.606612   21.480147   16.529187 H    924 MOH     0.4215 ****
5852 HC1    16.947367   29.146642    8.355739 H    925 MOH     0.0372 ****
5853 C1     16.710076   28.860052    9.381044 C    925 MOH     0.1166 ****
5854 HC2    17.472178   28.197465    9.790459 H    925 MOH     0.0372 ****
5855 HC3    15.756870   28.331370    9.361952 H    925 MOH     0.0372 ****
5856 O1     16.608462   29.986409   10.218966 O    925 MOH    -0.6497 ****
5857 HO1    17.382111   30.542851   10.099465 H    925 MOH     0.4215 ****
5858 HC1    14.638543   14.164338   14.707680 H    926 MOH     0.0372 ****
5859 C1     14.231511   15.164954   14.562723 C    926 MOH     0.1166 ****
5860 HC2    13.185929   15.119231   14.257253 H    926 MOH     0.0372 ****
5861 HC3    14.788076   15.622601   13.746014 H    926 MOH     0.0372 ****
5862 O1     14.386241   15.988799   15.719549 O    926 MOH    -0.6497 ****
5863 HO1    14.669142   16.868983   15.459334 H    926 MOH     0.4215 ****
5864 HC1    14.044449   18.569745   16.930116 H    927 MOH     0.0372 ****
5865 C1     14.132784   19.555665   17.386200 C    927 MOH     0.1166 ****
5866 HC2    13.531762   19.587508   18.294125 H    927 MOH     0.0372 ****
5867 HC3    13.780600   20.290920   16.662830 H    927 MOH     0.0372 ****
5868 O1     15.472814   19.759381   17.693792 O    927 MOH    -0.6497 ****
5869 HO1    15.957788   19.292753   17.010019 H    927 MOH     0.4215 ****
5870 HC1    16.008018   13.732411   17.743996 H    928 MOH     0.0372 ****
5871 C1     17.084198   13.740576   17.574291 C    928 MOH     0.1166 ****
5872 HC2    17.504509   14.600755   18.094014 H    928 MOH     0.0372 ****
5873 HC3    17.288003   13.800997   16.505145 H    928 MOH     0.0372 ****
5874 O1     17.677715   12.595848   18.074922 O    928 MOH    -0.6497 ****
5875 HO1    17.215834   12.334569   18.873953 H    928 MOH     0.4215 ****
5876 HC1    12.654190   28.400364   10.342709 H    929 MOH     0.0372 ****
5877 C1     12.071643   27.527529   10.638280 C    929 MOH     0.1166 ****
5878 HC2    12.407661   26.612645   10.151083 H    929 MOH     0.0372 ****
5879 HC3    11.051466   27.707567   10.300990 H    929 MOH     0.0372 ****
5880 O1     12.064715   27.380560   12.041180 O    929 MOH    -0.6497 ****
5881 HO1    11.878231   28.242372   12.422310 H    929 MOH     0.4215 ****
5882 HC1    11.823383   25.385859   14.613634 H    930 MOH     0.0372 ****
5883 C1     12.855108   25.102126   14.407866 C    930 MOH     0.1166 ****
5884 HC2    13.125885   24.276240   15.064769 H    930 MOH     0.0372 ****
5885 HC3    13.503472   25.952915   14.618584 H    930 MOH     0.0372 ****
5886 O1     12.993094   24.782876   13.045979 O    930 MOH    -0.6497 ****
5887 HO1    12.696336   25.575694   12.593430 H    930 MOH     0.4215 ****
5888 HC1    17.317448   24.658360    8.927082 H    931 MOH     0.0372 ****
5889 C1     17.331882   25.365854    8.097645 C    931 MOH     0.1166 ****
5890 HC2    16.341149   25.796965    7.956224 H    931 MOH     0.0372 ****
5891 HC3    17.670786   24.872690    7.186892 H    931 MOH     0.0372 ****
5892 O1     18.208877   26.417502    8.404530 O    931 MOH    -0.6497 ****
5893 HO1    18.405176   26.424442    9.344275 H    931 MOH     0.4215 ****
5894 HC1    13.173805   16.911032   22.805466 H    932 MOH     0.0372 ****
5895 C1     14.166270   16.931853   22.355039 C    932 MOH     0.1166 ****
5896 HC2    14.689349   17.843063   22.644953 H    932 MOH     0.0372 ****
5897 HC3    14.106226   16.876331   21.268923 H    932 MOH     0.0372 ****
5898 O1     14.901237   15.867142   22.803345 O    932 MOH    -0.6497 ****
5899 HO1    14.454368   15.071057   22.507775 H    932 MOH     0.4215 ****
5900 HC1    11.113819   29.140518   15.810766 H    933 MOH     0.0372 ****
5901 C1     10.874219   28.507733   16.664951 C    933 MOH     0.1166 ****
5902 HC2     9.828638   28.632249   16.945672 H    933 MOH     0.0372 ****
5903 HC3    11.506417   28.815144   17.498630 H    933 MOH     0.0372 ****
5904 O1     11.176173   27.157656   16.348874 O    933 MOH    -0.6497 ****
5905 HO1    10.713716   26.884538   15.553379 H    933 MOH     0.4215 ****
5906 HC1     8.520362   21.202130    6.711009 H    934 MOH     0.0372 ****
5907 C1      9.308445   21.236423    5.958647 C    934 MOH     0.1166 ****
5908 HC2     8.888134   21.627933    5.031630 H    934 MOH     0.0372 ****
5909 HC3     9.706239   20.238664    5.771971 H    934 MOH     0.0372 ****
5910 O1     10.314767   22.136610    6.308665 O    934 MOH    -0.6497 ****
5911 HO1    11.142110   21.671616    6.165123 H    934 MOH     0.4215 ****
5912 HC1    11.724079   20.581593    3.992891 H    935 MOH     0.0372 ****
5913 C1     12.154205   20.011678    4.817377 C    935 MOH     0.1166 ****
5914 HC2    12.929586   19.367870    4.402305 H    935 MOH     0.0372 ****
5915 HC3    11.408845   19.362972    5.277704 H    935 MOH     0.0372 ****
5916 O1     12.723472   20.906150    5.757122 O    935 MOH    -0.6497 ****
5917 HO1    13.138009   20.366854    6.433823 H    935 MOH     0.4215 ****
5918 HC1    22.071350   29.296877    6.278260 H    936 MOH     0.0372 ****
5919 C1     22.814977   28.775952    5.675805 C    936 MOH     0.1166 ****
5920 HC2    23.730655   29.365463    5.627721 H    936 MOH     0.0372 ****
5921 HC3    22.478959   28.654703    4.645550 H    936 MOH     0.0372 ****
5922 O1     23.153305   27.547125    6.259875 O    936 MOH    -0.6497 ****
5923 HO1    22.449515   27.275640    6.853138 H    936 MOH     0.4215 ****
5924 HC1    22.787264   23.619776   10.938093 H    937 MOH     0.0372 ****
5925 C1     22.748005   22.550166   10.733032 C    937 MOH     0.1166 ****
5926 HC2    21.969736   22.121913   11.364479 H    937 MOH     0.0372 ****
5927 HC3    23.716798   22.113749   10.976984 H    937 MOH     0.0372 ****
5928 O1     22.459330   22.258268    9.364781 O    937 MOH    -0.6497 ****
5929 HO1    22.888878   21.443813    9.092545 H    937 MOH     0.4215 ****
5930 HC1    26.948805   22.299910    8.691615 H    938 MOH     0.0372 ****
5931 C1     26.426303   23.229083    8.919304 C    938 MOH     0.1166 ****
5932 HC2    25.394001   23.015977    9.197904 H    938 MOH     0.0372 ****
5933 HC3    26.466718   23.875340    8.043198 H    938 MOH     0.0372 ****
5934 O1     27.113927   23.792465    9.985621 O    938 MOH    -0.6497 ****
5935 HO1    27.576385   23.077214   10.428269 H    938 MOH     0.4215 ****
5936 HC1    20.349114   17.514015   18.331602 H    939 MOH     0.0372 ****
5937 C1     20.600262   16.993499   19.255791 C    939 MOH     0.1166 ****
5938 HC2    19.933422   16.139851   19.376706 H    939 MOH     0.0372 ****
5939 HC3    20.477286   17.663434   20.106440 H    939 MOH     0.0372 ****
5940 O1     21.940292   16.562797   19.158917 O    939 MOH    -0.6497 ****
5941 HO1    22.130240   16.007171   19.917642 H    939 MOH     0.4215 ****
5942 HC1    21.821935   24.444438    8.310485 H    940 MOH     0.0372 ****
5943 C1     20.884895   24.700410    7.817631 C    940 MOH     0.1166 ****
5944 HC2    20.046583   24.368504    8.430693 H    940 MOH     0.0372 ****
5945 HC3    20.866420   24.201530    6.848895 H    940 MOH     0.0372 ****
5946 O1     20.854296   26.083963    7.600549 O    940 MOH    -0.6497 ****
5947 HO1    19.938041   26.325238    7.448521 H    940 MOH     0.4215 ****
5948 HC1    11.875344   23.742251   17.552370 H    941 MOH     0.0372 ****
5949 C1     10.865559   24.141518   17.644294 C    941 MOH     0.1166 ****
5950 HC2    10.252990   23.400139   18.157654 H    941 MOH     0.0372 ****
5951 HC3    10.464300   24.333395   16.648688 H    941 MOH     0.0372 ****
5952 O1     10.933686   25.330337   18.406555 O    941 MOH    -0.6497 ****
5953 HO1    11.267972   26.023542   17.832384 H    941 MOH     0.4215 ****
5954 HC1    18.492356   19.734477    6.602822 H    942 MOH     0.0372 ****
5955 C1     18.797774   18.754273    6.235833 C    942 MOH     0.1166 ****
5956 HC2    19.746938   18.833882    5.706210 H    942 MOH     0.0372 ****
5957 HC3    18.031053   18.361947    5.569032 H    942 MOH     0.0372 ****
5958 O1     18.951349   17.833673    7.309929 O    942 MOH    -0.6497 ****
5959 HO1    19.800632   17.399705    7.201741 H    942 MOH     0.4215 ****
5960 HC1    24.333408   17.086171   13.275789 H    943 MOH     0.0372 ****
5961 C1     25.204630   17.589541   12.856474 C    943 MOH     0.1166 ****
5962 HC2    24.906717   18.538718   12.413118 H    943 MOH     0.0372 ****
5963 HC3    25.643416   16.977985   12.067343 H    943 MOH     0.0372 ****
5964 O1     26.173424   17.864700   13.842181 O    943 MOH    -0.6497 ****
5965 HO1    26.603550   17.026567   14.025322 H    943 MOH     0.4215 ****
5966 HC1     7.619118   30.978452   15.976229 H    944 MOH     0.0372 ****
5967 C1      8.481679   31.441405   15.496811 C    944 MOH     0.1166 ****
5968 HC2     9.268608   31.556123   16.242808 H    944 MOH     0.0372 ****
5969 HC3     8.164714   32.433449   15.174370 H    944 MOH     0.0372 ****
5970 O1      8.864463   30.653895   14.337863 O    944 MOH    -0.6497 ****
5971 HO1     8.170488   30.700027   13.676718 H    944 MOH     0.4215 ****
5972 HC1    15.778232   23.409937    1.527916 H    945 MOH     0.0372 ****
5973 C1     16.701993   23.598139    0.979909 C    945 MOH     0.1166 ****
5974 HC2    17.292622   22.683255    1.017385 H    945 MOH     0.0372 ****
5975 HC3    17.224495   24.421576    1.467105 H    945 MOH     0.0372 ****
5976 O1     16.428906   23.950458   -0.374201 O    945 MOH    -0.6497 ****
5977 HO1    17.210638   24.372586   -0.737654 H    945 MOH     0.4215 ****
5978 HC1    19.886079   32.665742   11.549034 H    946 MOH     0.0372 ****
5979 C1     18.871098   32.282397   11.445089 C    946 MOH     0.1166 ****
5980 HC2    18.149987   33.099710   11.466302 H    946 MOH     0.0372 ****
5981 HC3    18.636116   31.587558   12.251191 H    946 MOH     0.0372 ****
5982 O1     18.743503   31.570412   10.262806 O    946 MOH    -0.6497 ****
5983 HO1    19.464036   30.937219   10.230987 H    946 MOH     0.4215 ****
5984 HC1    13.364908   18.671807   12.438574 H    947 MOH     0.0372 ****
5985 C1     14.221696   18.413794   11.814906 C    947 MOH     0.1166 ****
5986 HC2    14.407603   19.207021   11.091536 H    947 MOH     0.0372 ****
5987 HC3    13.975745   17.509933   11.257706 H    947 MOH     0.0372 ****
5988 O1     15.385057   18.223142   12.616058 O    947 MOH    -0.6497 ****
5989 HO1    16.081341   17.875315   12.054615 H    947 MOH     0.4215 ****
5990 HC1    19.419580   18.331736   11.621866 H    948 MOH     0.0372 ****
5991 C1     18.921327   17.556065   11.042038 C    948 MOH     0.1166 ****
5992 HC2    19.648211   16.810603   10.719597 H    948 MOH     0.0372 ****
5993 HC3    18.458870   18.030041   10.175832 H    948 MOH     0.0372 ****
5994 O1     17.946182   16.925321   11.838947 O    948 MOH    -0.6497 ****
5995 HO1    18.417878   16.556265   12.588481 H    948 MOH     0.4215 ****
5996 HC1    18.744081   30.030499    7.328313 H    949 MOH     0.0372 ****
5997 C1     19.337019   29.692062    6.479078 C    949 MOH     0.1166 ****
5998 HC2    19.704214   28.696344    6.727272 H    949 MOH     0.0372 ****
5999 HC3    20.183992   30.361997    6.327050 H    949 MOH     0.0372 ****
6000 O1     18.532770   29.641030    5.308816 O    949 MOH    -0.6497 ****
6001 HO1    18.939802   28.990691    4.731110 H    949 MOH     0.4215 ****
6002 HC1    14.500556   30.351383   12.990824 H    950 MOH     0.0372 ****
6003 C1     14.681844   29.313207   13.270131 C    950 MOH     0.1166 ****
6004 HC2    14.022510   28.675932   12.681112 H    950 MOH     0.0372 ****
6005 HC3    14.457255   29.158481   14.325842 H    950 MOH     0.0372 ****
6006 O1     16.012059   28.917615   13.029008 O    950 MOH    -0.6497 ****
6007 HO1    16.191615   29.025800   12.092092 H    950 MOH     0.4215 ****
6008 HC1    18.389010   24.563238   16.649395 H    951 MOH     0.0372 ****
6009 C1     18.842807   25.442605   17.106186 C    951 MOH     0.1166 ****
6010 HC2    19.679965   25.759406   16.483932 H    951 MOH     0.0372 ****
6011 HC3    19.146494   25.193574   18.123005 H    951 MOH     0.0372 ****
6012 O1     17.892489   26.440364   17.070830 O    951 MOH    -0.6497 ****
6013 HO1    17.564554   26.495886   16.169976 H    951 MOH     0.4215 ****
6014 HC1    22.011306   20.622826   18.492115 H    952 MOH     0.0372 ****
6015 C1     22.834030   19.932070   18.306853 C    952 MOH     0.1166 ****
6016 HC2    23.109426   20.053319   17.259628 H    952 MOH     0.0372 ****
6017 HC3    22.525725   18.892261   18.413626 H    952 MOH     0.0372 ****
6018 O1     23.924067   20.242747   19.191444 O    952 MOH    -0.6497 ****
6019 HO1    24.534904   19.502184   19.204172 H    952 MOH     0.4215 ****
6020 HC1    17.758544   21.964330    9.296899 H    953 MOH     0.0372 ****
6021 C1     18.685768   21.787558    9.840664 C    953 MOH     0.1166 ****
6022 HC2    18.619950   20.862876   10.414127 H    953 MOH     0.0372 ****
6023 HC3    18.909203   22.624059   10.503223 H    953 MOH     0.0372 ****
6024 O1     19.689203   21.685496    8.910111 O    953 MOH    -0.6497 ****
6025 HO1    20.499225   22.026383    9.296899 H    953 MOH     0.4215 ****
6026 HC1    15.661608   22.108441    4.024003 H    954 MOH     0.0372 ****
6027 C1     15.941622   21.200089    4.557869 C    954 MOH     0.1166 ****
6028 HC2    16.749913   20.704475    4.020468 H    954 MOH     0.0372 ****
6029 HC3    15.110815   20.494228    4.581203 H    954 MOH     0.0372 ****
6030 O1     16.379254   21.461368    5.877330 O    954 MOH    -0.6497 ****
6031 HO1    16.031689   20.756731    6.428873 H    954 MOH     0.4215 ****
6032 HC1    26.605282   24.406879   13.449737 H    955 MOH     0.0372 ****
6033 C1     25.595496   24.085996   13.193764 C    955 MOH     0.1166 ****
6034 HC2    24.898057   24.516698   13.912892 H    955 MOH     0.0372 ****
6035 HC3    25.514090   22.999647   13.228412 H    955 MOH     0.0372 ****
6036 O1     25.240426   24.545275   11.921679 O    955 MOH    -0.6497 ****
6037 HO1    25.839138   24.137844   11.292354 H    955 MOH     0.4215 ****
6038 HC1    20.095657   11.620951   15.864506 H    956 MOH     0.0372 ****
6039 C1     20.677049   12.378252   16.391301 C    956 MOH     0.1166 ****
6040 HC2    21.730713   12.134119   16.254122 H    956 MOH     0.0372 ****
6041 HC3    20.447264   12.388866   17.456204 H    956 MOH     0.0372 ****
6042 O1     20.548877   13.638514   15.839051 O    956 MOH    -0.6497 ****
6043 HO1    21.347353   14.114940   16.080174 H    956 MOH     0.4215 ****
6044 HC1    15.251111   22.978010   20.946483 H    957 MOH     0.0372 ****
6045 C1     15.596367   22.134977   20.348978 C    957 MOH     0.1166 ****
6046 HC2    16.336530   21.603030   20.947897 H    957 MOH     0.0372 ****
6047 HC3    16.038040   22.520772   19.430446 H    957 MOH     0.0372 ****
6048 O1     14.543857   21.217235   20.015223 O    957 MOH    -0.6497 ****
6049 HO1    14.822717   20.704067   19.253669 H    957 MOH     0.4215 ****
6050 HC1    20.316205   11.298435   11.201844 H    958 MOH     0.0372 ****
6051 C1     20.283296   12.383559   11.102849 C    958 MOH     0.1166 ****
6052 HC2    20.728433   12.852636   11.980369 H    958 MOH     0.0372 ****
6053 HC3    19.245798   12.709341   11.027896 H    958 MOH     0.0372 ****
6054 O1     20.969188   12.760780    9.937537 O    958 MOH    -0.6497 ****
6055 HO1    21.070802   13.714040    9.977842 H    958 MOH     0.4215 ****
6056 HC1    28.749561   20.115373   12.384834 H    959 MOH     0.0372 ****
6057 C1     27.843698   20.439931   11.873596 C    959 MOH     0.1166 ****
6058 HC2    26.958043   20.047196   12.372813 H    959 MOH     0.0372 ****
6059 HC3    27.851204   20.091695   10.840513 H    959 MOH     0.0372 ****
6060 O1     27.750745   21.832057   11.887738 O    959 MOH    -0.6497 ****
6061 HO1    28.020945   22.117423   12.763843 H    959 MOH     0.4215 ****
6062 HC1    21.283844   24.679181   14.369683 H    960 MOH     0.0372 ****
6063 C1     21.947220   23.857377   14.639090 C    960 MOH     0.1166 ****
6064 HC2    22.963356   24.243580   14.716872 H    960 MOH     0.0372 ****
6065 HC3    21.933363   23.074765   13.880365 H    960 MOH     0.0372 ****
6066 O1     21.569055   23.430349   15.926025 O    960 MOH    -0.6497 ****
6067 HO1    21.622749   24.199489   16.497367 H    960 MOH     0.4215 ****
6068 HC1    15.770149   23.642230    9.492060 H    961 MOH     0.0372 ****
6069 C1     15.139683   23.328695   10.323618 C    961 MOH     0.1166 ****
6070 HC2    14.163384   23.015977    9.953094 H    961 MOH     0.0372 ****
6071 HC3    14.969364   24.155806   11.013754 H    961 MOH     0.0372 ****
6072 O1     15.741859   22.274598   11.019411 O    961 MOH    -0.6497 ****
6073 HO1    15.091185   21.920239   11.628937 H    961 MOH     0.4215 ****
6074 HC1    18.432311   28.374644   12.635857 H    962 MOH     0.0372 ****
6075 C1     19.088759   28.650212   13.461050 C    962 MOH     0.1166 ****
6076 HC2    18.542008   28.614286   14.404331 H    962 MOH     0.0372 ****
6077 HC3    19.435169   29.672874   13.310437 H    962 MOH     0.0372 ****
6078 O1     20.207663   27.778194   13.526104 O    962 MOH    -0.6497 ****
6079 HO1    20.812727   28.104792   14.196441 H    962 MOH     0.4215 ****
6080 HC1     7.770384   18.306833   12.688890 H    963 MOH     0.0372 ****
6081 C1      8.414130   19.091078   12.292203 C    963 MOH     0.1166 ****
6082 HC2     8.448193   19.892470   13.029715 H    963 MOH     0.0372 ****
6083 HC3     8.015180   19.531170   11.377207 H    963 MOH     0.0372 ****
6084 O1      9.725869   18.626492   12.061686 O    963 MOH    -0.6497 ****
6085 HO1    10.168120   19.413594   11.736417 H    963 MOH     0.4215 ****
6086 HC1    14.540393   25.447504   16.867184 H    964 MOH     0.0372 ****
6087 C1     14.703206   25.223376   17.921480 C    964 MOH     0.1166 ****
6088 HC2    15.270741   24.296652   18.013404 H    964 MOH     0.0372 ****
6089 HC3    13.719401   25.105800   18.375442 H    964 MOH     0.0372 ****
6090 O1     15.396026   26.299927   18.513328 O    964 MOH    -0.6497 ****
6091 HO1    16.234339   26.390558   18.055123 H    964 MOH     0.4215 ****
6092 HC1    12.475789   19.381343   21.626719 H    965 MOH     0.0372 ****
6093 C1     12.082613   19.816127   22.545251 C    965 MOH     0.1166 ****
6094 HC2    11.898438   20.880839   22.403830 H    965 MOH     0.0372 ****
6095 HC3    12.781784   19.672016   23.369031 H    965 MOH     0.0372 ****
6096 O1     10.918098   19.155173   22.874056 O    965 MOH    -0.6497 ****
6097 HO1    10.493745   19.604655   23.608740 H    965 MOH     0.4215 ****
6098 HC1    14.262688   25.342584    7.531253 H    966 MOH     0.0372 ****
6099 C1     14.129320   24.319922    7.178407 C    966 MOH     0.1166 ****
6100 HC2    13.130504   24.242355    6.749900 H    966 MOH     0.0372 ****
6101 HC3    14.202643   23.603038    7.995822 H    966 MOH     0.0372 ****
6102 O1     15.049616   24.042722    6.166537 O    966 MOH    -0.6497 ****
6103 HO1    15.165664   23.094769    6.074613 H    966 MOH     0.4215 ****
6104 HC1    16.449691   16.068000    6.488978 H    967 MOH     0.0372 ****
6105 C1     15.712992   16.413786    7.213762 C    967 MOH     0.1166 ****
6106 HC2    15.442214   15.605863    7.894706 H    967 MOH     0.0372 ****
6107 HC3    14.804242   16.713440    6.693331 H    967 MOH     0.0372 ****
6108 O1     16.152933   17.495236    8.007843 O    967 MOH    -0.6497 ****
6109 HO1    17.100364   17.426650    8.143607 H    967 MOH     0.4215 ****
6110 HC1    17.398277   32.623284    6.841117 H    968 MOH     0.0372 ****
6111 C1     16.550727   31.958656    7.010822 C    968 MOH     0.1166 ****
6112 HC2    15.685279   32.602464    7.167093 H    968 MOH     0.0372 ****
6113 HC3    16.783399   31.356898    7.889049 H    968 MOH     0.0372 ****
6114 O1     16.417359   31.256877    5.795306 O    968 MOH    -0.6497 ****
6115 HO1    17.263177   30.851078    5.590245 H    968 MOH     0.4215 ****
6116 HC1    15.286907   13.817327   12.251191 H    969 MOH     0.0372 ****
6117 C1     16.322096   14.121472   12.094920 C    969 MOH     0.1166 ****
6118 HC2    16.910993   13.218835   11.927336 H    969 MOH     0.0372 ****
6119 HC3    16.695064   14.678322   12.953348 H    969 MOH     0.0372 ****
6120 O1     16.319787   14.853053   10.918294 O    969 MOH    -0.6497 ****
6121 HO1    16.957181   15.562180   11.027896 H    969 MOH     0.4215 ****
6122 HC1    28.349457   19.009429   16.821929 H    970 MOH     0.0372 ****
6123 C1     28.733395   19.606288   15.994614 C    970 MOH     0.1166 ****
6124 HC2    29.421019   18.989016   15.416201 H    970 MOH     0.0372 ****
6125 HC3    29.234535   20.468100   16.436556 H    970 MOH     0.0372 ****
6126 O1     27.668184   20.045971   15.207604 O    970 MOH    -0.6497 ****
6127 HO1    27.138753   19.289895   14.945975 H    970 MOH     0.4215 ****
6128 HC1     6.764640   27.313199   12.939913 H    971 MOH     0.0372 ****
6129 C1      6.598363   28.383626   13.058706 C    971 MOH     0.1166 ****
6130 HC2     6.951701   28.704509   14.038756 H    971 MOH     0.0372 ****
6131 HC3     5.531420   28.596731   12.986582 H    971 MOH     0.0372 ****
6132 O1      7.285410   29.098060   12.048958 O    971 MOH    -0.6497 ****
6133 HO1     7.194766   28.568154   11.254170 H    971 MOH     0.4215 ****
6134 HC1    13.427839   33.629208   10.090979 H    972 MOH     0.0372 ****
6135 C1     14.299061   32.973970   10.071887 C    972 MOH     0.1166 ****
6136 HC2    14.298483   32.402422    9.144163 H    972 MOH     0.0372 ****
6137 HC3    14.271348   32.264842   10.899910 H    972 MOH     0.0372 ****
6138 O1     15.477433   33.758623   10.145427 O    972 MOH    -0.6497 ****
6139 HO1    15.447988   34.269341   10.957892 H    972 MOH     0.4215 ****
6140 HC1     9.242627   26.864126   12.616058 H    973 MOH     0.0372 ****
6141 C1      9.509940   25.859427   12.944862 C    973 MOH     0.1166 ****
6142 HC2    10.454485   25.569979   12.484536 H    973 MOH     0.0372 ****
6143 HC3     8.747261   25.145809   12.635150 H    973 MOH     0.0372 ****
6144 O1      9.677372   25.867183   14.373925 O    973 MOH    -0.6497 ****
6145 HO1     8.848874   26.054978   14.820817 H    973 MOH     0.4215 ****
6146 HC1    20.402231   25.748383    4.640600 H    974 MOH     0.0372 ****
6147 C1     19.477893   26.263592    4.378971 C    974 MOH     0.1166 ****
6148 HC2    18.764865   26.216644    5.202750 H    974 MOH     0.0372 ****
6149 HC3    19.041993   25.817377    3.485895 H    974 MOH     0.0372 ****
6150 O1     19.715761   27.612853    4.099664 O    974 MOH    -0.6497 ****
6151 HO1    20.220365   27.643063    3.283662 H    974 MOH     0.4215 ****
6152 HC1    10.661754   15.528704    5.180123 H    975 MOH     0.0372 ****
6153 C1     11.175596   15.837748    6.090169 C    975 MOH     0.1166 ****
6154 HC2    12.258705   15.811620    5.974204 H    975 MOH     0.0372 ****
6155 HC3    10.872487   15.198431    6.920313 H    975 MOH     0.0372 ****
6156 O1     10.736232   17.095152    6.373012 O    975 MOH    -0.6497 ****
6157 HO1    10.404256   17.457268    5.547818 H    975 MOH     0.4215 ****
6158 HC1    12.121873   34.355482   11.617623 H    976 MOH     0.0372 ****
6159 C1     12.688254   34.660443   12.497971 C    976 MOH     0.1166 ****
6160 HC2    13.073924   33.766788   12.989410 H    976 MOH     0.0372 ****
6161 HC3    12.034116   35.184226   13.194471 H    976 MOH     0.0372 ****
6162 O1     13.782910   35.474899   12.092799 O    976 MOH    -0.6497 ****
6163 HO1    13.431881   36.350183   11.916022 H    976 MOH     0.4215 ****
6164 HC1     4.038392   24.950666   11.014461 H    977 MOH     0.0372 ****
6165 C1      4.597267   25.583042   11.703890 C    977 MOH     0.1166 ****
6166 HC2     4.642300   26.583659   11.273262 H    977 MOH     0.0372 ****
6167 HC3     5.610517   25.188675   11.784500 H    977 MOH     0.0372 ****
6168 O1      3.932159   25.595290   12.992238 O    977 MOH    -0.6497 ****
6169 HO1     4.399236   24.977202   13.557924 H    977 MOH     0.4215 ****
6170 HC1    12.513316   18.737535    8.913647 H    978 MOH     0.0372 ****
6171 C1     11.631125   19.320922    9.174569 C    978 MOH     0.1166 ****
6172 HC2    11.935389   20.319497    9.485696 H    978 MOH     0.0372 ****
6173 HC3    11.095922   18.831024    9.987742 H    978 MOH     0.0372 ****
6174 O1     10.810133   19.376035    8.007136 O    978 MOH    -0.6497 ****
6175 HO1    10.719489   18.487279    7.654289 H    978 MOH     0.4215 ****
6176 HC1    20.050047    9.745050   14.364733 H    979 MOH     0.0372 ****
6177 C1     20.887782    9.973261   13.705002 C    979 MOH     0.1166 ****
6178 HC2    21.245162   10.974694   13.940469 H    979 MOH     0.0372 ****
6179 HC3    20.537330    9.928354   12.674041 H    979 MOH     0.0372 ****
6180 O1     21.968582    9.031432   13.909356 O    979 MOH    -0.6497 ****
6181 HO1    22.801698    9.419676   13.631463 H    979 MOH     0.4215 ****
6182 HC1    14.243635   20.600372   13.980067 H    980 MOH     0.0372 ****
6183 C1     13.931866   21.643855   13.944711 C    980 MOH     0.1166 ****
6184 HC2    14.737847   22.301135   14.272809 H    980 MOH     0.0372 ****
6185 HC3    13.088935   21.767146   14.623534 H    980 MOH     0.0372 ****
6186 O1     13.478646   21.990049   12.650706 O    980 MOH    -0.6497 ****
6187 HO1    13.267336   22.925754   12.680404 H    980 MOH     0.4215 ****
6188 HC1     9.968934   19.771220   14.796775 H    981 MOH     0.0372 ****
6189 C1     10.740274   19.478098   15.509539 C    981 MOH     0.1166 ****
6190 HC2    11.638053   19.221718   14.946682 H    981 MOH     0.0372 ****
6191 HC3    10.410029   18.589749   16.048354 H    981 MOH     0.0372 ****
6192 O1     11.000659   20.555465   16.418171 O    981 MOH    -0.6497 ****
6193 HO1    10.334396   20.530562   17.109014 H    981 MOH     0.4215 ****
6194 HC1     9.839607   20.381959   20.679903 H    982 MOH     0.0372 ****
6195 C1     10.322849   20.231316   19.714703 C    982 MOH     0.1166 ****
6196 HC2    10.778379   19.241722   19.694904 H    982 MOH     0.0372 ****
6197 HC3    11.083220   21.000455   19.576110 H    982 MOH     0.0372 ****
6198 O1      9.291702   20.280714   18.728289 O    982 MOH    -0.6497 ****
6199 HO1     8.779015   21.081697   18.858396 H    982 MOH     0.4215 ****
6200 HC1     5.539502   21.809604   14.346348 H    983 MOH     0.0372 ****
6201 C1      6.127245   22.725304   14.407866 C    983 MOH     0.1166 ****
6202 HC2     6.593167   22.935961   13.444787 H    983 MOH     0.0372 ****
6203 HC3     6.915906   22.576702   15.144672 H    983 MOH     0.0372 ****
6204 O1      5.345513   23.850029   14.783340 O    983 MOH    -0.6497 ****
6205 HO1     4.945409   23.685913   15.640353 H    983 MOH     0.4215 ****
6206 HC1    19.274665   24.417085   11.896223 H    984 MOH     0.0372 ****
6207 C1     20.056398   25.090287   11.544791 C    984 MOH     0.1166 ****
6208 HC2    20.615850   24.655502   10.716769 H    984 MOH     0.0372 ****
6209 HC3    20.741712   25.295227   12.366449 H    984 MOH     0.0372 ****
6210 O1     19.482512   26.289720   11.099314 O    984 MOH    -0.6497 ****
6211 HO1    19.677656   26.933120   11.785207 H    984 MOH     0.4215 ****
6212 HC1   -10.620300  -26.652980   -2.037175 H    985 MOH     0.0372 ****
6213 C1    -11.656644  -26.514175   -1.730290 C    985 MOH     0.1166 ****
6214 HC2   -12.220138  -26.150018   -2.588718 H    985 MOH     0.0372 ****
6215 HC3   -11.726504  -25.764223   -0.941866 H    985 MOH     0.0372 ****
6216 O1    -12.182033  -27.756883   -1.313097 O    985 MOH    -0.6497 ****
6217 HO1   -12.944713  -27.604606   -0.750947 H    985 MOH     0.4215 ****
6218 HC1    -4.012527  -35.954917    6.560537 H    986 MOH     0.0372 ****
6219 C1     -3.951328  -35.175163    7.318555 C    986 MOH     0.1166 ****
6220 HC2    -3.591061  -35.620970    8.246279 H    986 MOH     0.0372 ****
6221 HC3    -4.944370  -34.749768    7.464219 H    986 MOH     0.0372 ****
6222 O1     -3.080106  -34.152501    6.890756 O    986 MOH    -0.6497 ****
6223 HO1    -2.193296  -34.512576    6.824288 H    986 MOH     0.4215 ****
6224 HC1     2.245950  -31.205764    0.779939 H    987 MOH     0.0372 ****
6225 C1      2.679540  -31.012663    1.760696 C    987 MOH     0.1166 ****
6226 HC2     2.965329  -29.961832    1.811608 H    987 MOH     0.0372 ****
6227 HC3     3.567505  -31.631976    1.887268 H    987 MOH     0.0372 ****
6228 O1      1.725180  -31.327422    2.768323 O    987 MOH    -0.6497 ****
6229 HO1     1.926098  -32.219037    3.061065 H    987 MOH     0.4215 ****
6230 HC1     6.315692  -32.817121   -3.835347 H    988 MOH     0.0372 ****
6231 C1      6.121125  -32.075742   -3.060358 C    988 MOH     0.1166 ****
6232 HC2     5.057069  -32.033692   -2.827720 H    988 MOH     0.0372 ****
6233 HC3     6.422502  -31.087372   -3.407547 H    988 MOH     0.0372 ****
6234 O1      6.790852  -32.406014   -1.849084 O    988 MOH    -0.6497 ****
6235 HO1     6.573191  -33.300486   -1.576848 H    988 MOH     0.4215 ****
6236 HC1    -9.570678  -28.104302    2.631852 H    989 MOH     0.0372 ****
6237 C1     -8.966769  -27.552759    3.352393 C    989 MOH     0.1166 ****
6238 HC2    -8.155015  -28.187993    3.705947 H    989 MOH     0.0372 ****
6239 HC3    -9.615134  -27.266985    4.181122 H    989 MOH     0.0372 ****
6240 O1     -8.462165  -26.428851    2.696905 O    989 MOH    -0.6497 ****
6241 HO1    -7.649256  -26.167164    3.136019 H    989 MOH     0.4215 ****
6242 HC1    -2.866486  -34.511759   -9.829491 H    990 MOH     0.0372 ****
6243 C1     -3.658611  -35.044115   -9.303404 C    990 MOH     0.1166 ****
6244 HC2    -3.631475  -34.786510   -8.244865 H    990 MOH     0.0372 ****
6245 HC3    -3.492911  -36.111684   -9.445532 H    990 MOH     0.0372 ****
6246 O1     -4.887212  -34.628518   -9.859190 O    990 MOH    -0.6497 ****
6247 HO1    -5.581765  -34.987368   -9.301282 H    990 MOH     0.4215 ****
6248 HC1    -2.170202  -26.620728  -10.948841 H    991 MOH     0.0372 ****
6249 C1     -1.632689  -26.278208  -11.833432 C    991 MOH     0.1166 ****
6250 HC2    -1.960624  -26.852205  -12.700345 H    991 MOH     0.0372 ****
6251 HC3    -0.573251  -26.462736  -11.655241 H    991 MOH     0.0372 ****
6252 O1     -1.893074  -24.897512  -12.102132 O    991 MOH    -0.6497 ****
6253 HO1    -1.633843  -24.692571  -13.002986 H    991 MOH     0.4215 ****
6254 HC1   -11.508843  -33.425819    7.016621 H    992 MOH     0.0372 ****
6255 C1    -12.529021  -33.718533    7.264815 C    992 MOH     0.1166 ****
6256 HC2   -12.690101  -33.660970    8.340325 H    992 MOH     0.0372 ****
6257 HC3   -12.737444  -34.740786    6.948031 H    992 MOH     0.0372 ****
6258 O1    -13.415253  -32.826102    6.663774 O    992 MOH    -0.6497 ****
6259 HO1   -12.963765  -32.449697    5.904342 H    992 MOH     0.4215 ****
6260 HC1     1.198637  -28.452946   -2.306582 H    993 MOH     0.0372 ****
6261 C1      1.247134  -29.540520   -2.357494 C    993 MOH     0.1166 ****
6262 HC2     0.868970  -29.895287   -3.315623 H    993 MOH     0.0372 ****
6263 HC3     0.640339  -29.987143   -1.569777 H    993 MOH     0.0372 ****
6264 O1      2.583700  -29.974896   -2.283955 O    993 MOH    -0.6497 ****
6265 HO1     2.551369  -30.934279   -2.262741 H    993 MOH     0.4215 ****
6266 HC1    -7.711610  -29.477650   -7.879998 H    994 MOH     0.0372 ****
6267 C1     -7.665999  -29.932438   -8.869947 C    994 MOH     0.1166 ****
6268 HC2    -6.748589  -30.511334   -8.978842 H    994 MOH     0.0372 ****
6269 HC3    -7.676391  -29.154725   -9.632916 H    994 MOH     0.0372 ****
6270 O1     -8.769315  -30.768939   -9.087029 O    994 MOH    -0.6497 ****
6271 HO1    -8.510085  -31.656471   -8.829642 H    994 MOH     0.4215 ****
6272 HC1     0.395543  -34.034517   -9.384721 H    995 MOH     0.0372 ****
6273 C1      0.594151  -33.073909   -8.910252 C    995 MOH     0.1166 ****
6274 HC2     1.658785  -32.856721   -8.993691 H    995 MOH     0.0372 ****
6275 HC3     0.364943  -33.109018   -7.845350 H    995 MOH     0.0372 ****
6276 O1     -0.199128  -32.078191   -9.561498 O    995 MOH    -0.6497 ****
6277 HO1    -0.151785  -31.302111   -8.997934 H    995 MOH     0.4215 ****
6278 HC1   -16.909954  -30.639116    3.220871 H    996 MOH     0.0372 ****
6279 C1    -15.869569  -30.611763    2.894895 C    996 MOH     0.1166 ****
6280 HC2   -15.285291  -31.251488    3.557454 H    996 MOH     0.0372 ****
6281 HC3   -15.528355  -29.578079    2.948635 H    996 MOH     0.0372 ****
6282 O1    -15.802596  -31.093904    1.571898 O    996 MOH    -0.6497 ****
6283 HO1   -16.397267  -31.846714    1.528058 H    996 MOH     0.4215 ****
6284 HC1   -14.029554  -35.321315   -0.939038 H    997 MOH     0.0372 ****
6285 C1    -13.115031  -35.015129   -1.446740 C    997 MOH     0.1166 ****
6286 HC2   -12.519783  -34.360707   -0.809637 H    997 MOH     0.0372 ****
6287 HC3   -13.390427  -34.468893   -2.349009 H    997 MOH     0.0372 ****
6288 O1    -12.412973  -36.154550   -1.844841 O    997 MOH    -0.6497 ****
6289 HO1   -11.478243  -35.955733   -1.755039 H    997 MOH     0.4215 ****
6290 HC1     5.994686  -30.787310   -0.053740 H    998 MOH     0.0372 ****
6291 C1      6.077247  -29.847522    0.492147 C    998 MOH     0.1166 ****
6292 HC2     5.250481  -29.191876    0.219203 H    998 MOH     0.0372 ****
6293 HC3     7.034493  -29.385385    0.247488 H    998 MOH     0.0372 ****
6294 O1      6.036255  -30.205556    1.833528 O    998 MOH    -0.6497 ****
6295 HO1     6.260267  -29.462544    2.397799 H    998 MOH     0.4215 ****
6296 HC1    -6.097916  -26.163082   -0.310420 H    999 MOH     0.0372 ****
6297 C1     -6.763601  -25.304127   -0.225567 C    999 MOH     0.1166 ****
6298 HC2    -7.805718  -25.624194   -0.232638 H    999 MOH     0.0372 ****
6299 HC3    -6.628501  -24.679507   -1.108036 H    999 MOH     0.0372 ****
6300 O1     -6.537857  -24.507227    0.977929 O    999 MOH    -0.6497 ****
6301 HO1    -6.610603  -25.074283    1.747968 H    999 MOH     0.4215 ****
6302 HC1   -13.774365  -33.549518   -5.407953 H    1000 MOH     0.0372 ****
6303 C1    -14.314765  -32.679949   -5.781305 C    1000 MOH     0.1166 ****
6304 HC2   -14.758170  -33.009405   -6.721050 H    1000 MOH     0.0372 ****
6305 HC3   -13.591922  -31.876925   -5.927676 H    1000 MOH     0.0372 ****
6306 O1    -15.306075  -32.341511   -4.787820 O    1000 MOH    -0.6497 ****
6307 HO1   -15.941738  -33.055538   -4.705088 H    1000 MOH     0.4215 ****
6308 HC1    -9.157295  -21.909134    2.423255 H    1001 MOH     0.0372 ****
6309 C1     -9.611670  -21.611113    1.478560 C    1001 MOH     0.1166 ****
6310 HC2   -10.692469  -21.745835    1.526644 H    1001 MOH     0.0372 ****
6311 HC3    -9.189049  -22.235733    0.690843 H    1001 MOH     0.0372 ****
6312 O1     -9.329923  -20.253688    1.219052 O    1001 MOH    -0.6497 ****
6313 HO1    -9.599545  -20.059361    0.318198 H    1001 MOH     0.4215 ****
6314 HC1    -8.116332  -18.995466    5.546546 H    1002 MOH     0.0372 ****
6315 C1     -8.458124  -19.664994    4.757414 C    1002 MOH     0.1166 ****
6316 HC2    -8.956377  -20.541094    5.173193 H    1002 MOH     0.0372 ****
6317 HC3    -7.585747  -19.983019    4.186779 H    1002 MOH     0.0372 ****
6318 O1     -9.239279  -18.935046    3.835347 O    1002 MOH    -0.6497 ****
6319 HO1    -9.212143  -19.422086    3.008739 H    1002 MOH     0.4215 ****
6320 HC1    -5.349670  -35.701395    1.215517 H    1003 MOH     0.0372 ****
6321 C1     -5.489966  -35.855713    0.146371 C    1003 MOH     0.1166 ****
6322 HC2    -5.686265  -34.901228   -0.342947 H    1003 MOH     0.0372 ****
6323 HC3    -6.324237  -36.534629   -0.029698 H    1003 MOH     0.0372 ****
6324 O1     -4.314481  -36.410114   -0.405172 O    1003 MOH    -0.6497 ****
6325 HO1    -3.667849  -36.510951    0.296985 H    1003 MOH     0.4215 ****
6326 HC1    -2.586471  -27.665027    2.505987 H    1004 MOH     0.0372 ****
6327 C1     -2.103807  -28.630942    2.358908 C    1004 MOH     0.1166 ****
6328 HC2    -2.876879  -29.384977    2.211123 H    1004 MOH     0.0372 ****
6329 HC3    -1.539158  -28.873442    3.258348 H    1004 MOH     0.0372 ****
6330 O1     -1.195635  -28.603182    1.236023 O    1004 MOH    -0.6497 ****
6331 HO1    -0.484339  -27.998974    1.465125 H    1004 MOH     0.4215 ****
6332 HC1    -0.021882  -24.393325   10.641957 H    1005 MOH     0.0372 ****
6333 C1     -0.733177  -25.219211   10.631351 C    1005 MOH     0.1166 ****
6334 HC2    -0.371179  -25.950384    9.907980 H    1005 MOH     0.0372 ****
6335 HC3    -1.722178  -24.846889   10.361236 H    1005 MOH     0.0372 ****
6336 O1     -0.796686  -25.792800   11.916164 O    1005 MOH    -0.6497 ****
6337 HO1    -1.072659  -25.108984   12.530639 H    1005 MOH     0.4215 ****
6338 HC1    -4.092201  -22.863619   -6.366082 H    1006 MOH     0.0372 ****
6339 C1     -4.673015  -22.482315   -5.526039 C    1006 MOH     0.1166 ****
6340 HC2    -4.375680  -21.475167   -5.234004 H    1006 MOH     0.0372 ****
6341 HC3    -4.465169  -23.137554   -4.679633 H    1006 MOH     0.0372 ****
6342 O1     -6.052305  -22.525998   -5.811003 O    1006 MOH    -0.6497 ****
6343 HO1    -6.457605  -23.200832   -5.261581 H    1006 MOH     0.4215 ****
6344 HC1   -15.514499  -33.220470    4.659834 H    1007 MOH     0.0372 ****
6345 C1    -15.905942  -33.989610    3.995153 C    1007 MOH     0.1166 ****
6346 HC2   -15.406534  -33.955725    3.027124 H    1007 MOH     0.0372 ****
6347 HC3   -16.977504  -33.827127    3.870703 H    1007 MOH     0.0372 ****
6348 O1    -15.765069  -35.256404    4.579931 O    1007 MOH    -0.6497 ****
6349 HO1   -16.211361  -35.256812    5.429166 H    1007 MOH     0.4215 ****
6350 HC1    -5.159722  -31.861411   -0.589020 H    1008 MOH     0.0372 ****
6351 C1     -6.223201  -31.660553   -0.720542 C    1008 MOH     0.1166 ****
6352 HC2    -6.805170  -32.581561   -0.693672 H    1008 MOH     0.0372 ****
6353 HC3    -6.388323  -31.189843   -1.689985 H    1008 MOH     0.0372 ****
6354 O1     -6.673534  -30.770164    0.258801 O    1008 MOH    -0.6497 ****
6355 HO1    -6.563260  -29.875692   -0.071418 H    1008 MOH     0.4215 ****
6356 HC1    -1.446782  -28.933863   -3.385627 H    1009 MOH     0.0372 ****
6357 C1     -1.850927  -28.588076   -4.336686 C    1009 MOH     0.1166 ****
6358 HC2    -2.783925  -29.111451   -4.548818 H    1009 MOH     0.0372 ****
6359 HC3    -1.129817  -28.733005   -5.140666 H    1009 MOH     0.0372 ****
6360 O1     -2.097456  -27.222078   -4.182536 O    1009 MOH    -0.6497 ****
6361 HO1    -1.273000  -26.766473   -3.994446 H    1009 MOH     0.4215 ****
6362 HC1    -6.249182  -28.261886   -5.849187 H    1010 MOH     0.0372 ****
6363 C1     -6.486472  -28.548476   -4.823882 C    1010 MOH     0.1166 ****
6364 HC2    -5.724370  -29.211063   -4.414467 H    1010 MOH     0.0372 ****
6365 HC3    -7.439678  -29.077158   -4.842974 H    1010 MOH     0.0372 ****
6366 O1     -6.588086  -27.422119   -3.985961 O    1010 MOH    -0.6497 ****
6367 HO1    -5.814437  -26.865677   -4.105462 H    1010 MOH     0.4215 ****
6368 HC1    -9.152099  -38.838783    2.725190 H    1011 MOH     0.0372 ****
6369 C1     -9.063764  -37.852863    3.181274 C    1011 MOH     0.1166 ****
6370 HC2    -9.664786  -37.821020    4.089199 H    1011 MOH     0.0372 ****
6371 HC3    -9.415948  -37.117608    2.457903 H    1011 MOH     0.0372 ****
6372 O1     -7.723734  -37.649147    3.488865 O    1011 MOH    -0.6497 ****
6373 HO1    -7.238760  -38.115775    2.805093 H    1011 MOH     0.4215 ****
6374 HC1     0.792760  -27.046531   -5.052278 H    1012 MOH     0.0372 ****
6375 C1      1.213071  -26.163082   -4.571445 C    1012 MOH     0.1166 ****
6376 HC2     1.466527  -25.421294   -5.328757 H    1012 MOH     0.0372 ****
6377 HC3     2.099881  -26.445998   -4.005053 H    1012 MOH     0.0372 ****
6378 O1      0.207904  -25.666652   -3.748373 O    1012 MOH    -0.6497 ****
6379 HO1     0.564129  -25.470284   -2.879339 H    1012 MOH     0.4215 ****
6380 HC1    -4.856035  -24.738703    7.523616 H    1013 MOH     0.0372 ****
6381 C1     -4.898759  -23.864644    6.873785 C    1013 MOH     0.1166 ****
6382 HC2    -4.097975  -23.164498    7.112080 H    1013 MOH     0.0372 ****
6383 HC3    -5.838108  -23.348618    7.068947 H    1013 MOH     0.0372 ****
6384 O1     -4.898182  -24.219003    5.482199 O    1013 MOH    -0.6497 ****
6385 HO1    -4.789063  -23.426593    4.951162 H    1013 MOH     0.4215 ****
6386 HC1   -10.542358  -29.008164   -3.862217 H    1014 MOH     0.0372 ****
6387 C1    -11.124905  -29.880999   -3.566647 C    1014 MOH     0.1166 ****
6388 HC2   -10.788887  -30.795883   -4.053843 H    1014 MOH     0.0372 ****
6389 HC3   -12.145082  -29.700961   -3.903936 H    1014 MOH     0.0372 ****
6390 O1    -11.131833  -30.027968   -2.163747 O    1014 MOH    -0.6497 ****
6391 HO1   -11.318317  -29.166156   -1.782616 H    1014 MOH     0.4215 ****
6392 HC1   -11.373165  -32.022669    0.408708 H    1015 MOH     0.0372 ****
6393 C1    -10.341440  -32.306402    0.202940 C    1015 MOH     0.1166 ****
6394 HC2   -10.070663  -33.132288    0.859842 H    1015 MOH     0.0372 ****
6395 HC3    -9.693076  -31.455612    0.413658 H    1015 MOH     0.0372 ****
6396 O1    -10.203454  -32.625652   -1.158948 O    1015 MOH    -0.6497 ****
6397 HO1   -10.500212  -31.832834   -1.611496 H    1015 MOH     0.4215 ****
6398 HC1    -5.879100  -32.750168   -5.277845 H    1016 MOH     0.0372 ****
6399 C1     -5.864666  -32.042674   -6.107281 C    1016 MOH     0.1166 ****
6400 HC2    -6.855399  -31.611563   -6.248702 H    1016 MOH     0.0372 ****
6401 HC3    -5.525762  -32.535837   -7.018035 H    1016 MOH     0.0372 ****
6402 O1     -4.987671  -30.991026   -5.800397 O    1016 MOH    -0.6497 ****
6403 HO1    -4.791372  -30.984086   -4.860652 H    1016 MOH     0.4215 ****
6404 HC1   -12.082729  -28.268010    1.605840 H    1017 MOH     0.0372 ****
6405 C1    -12.322329  -28.900795    2.460025 C    1017 MOH     0.1166 ****
6406 HC2   -13.367910  -28.776279    2.740746 H    1017 MOH     0.0372 ****
6407 HC3   -11.690131  -28.593384    3.293703 H    1017 MOH     0.0372 ****
6408 O1    -12.020375  -30.250872    2.143948 O    1017 MOH    -0.6497 ****
6409 HO1   -12.482832  -30.523990    1.348453 H    1017 MOH     0.4215 ****
6410 HC1   -14.676186  -36.206398   -7.493918 H    1018 MOH     0.0372 ****
6411 C1    -13.888103  -36.172105   -8.246279 C    1018 MOH     0.1166 ****
6412 HC2   -14.308414  -35.780595   -9.173296 H    1018 MOH     0.0372 ****
6413 HC3   -13.490309  -37.169864   -8.432955 H    1018 MOH     0.0372 ****
6414 O1    -12.881781  -35.271918   -7.896261 O    1018 MOH    -0.6497 ****
6415 HO1   -12.054438  -35.736912   -8.039804 H    1018 MOH     0.4215 ****
6416 HC1   -11.472469  -36.826935  -10.212036 H    1019 MOH     0.0372 ****
6417 C1    -11.042343  -37.396850   -9.387549 C    1019 MOH     0.1166 ****
6418 HC2   -10.266962  -38.040657   -9.802621 H    1019 MOH     0.0372 ****
6419 HC3   -11.787703  -38.045556   -8.927223 H    1019 MOH     0.0372 ****
6420 O1    -10.473076  -36.502378   -8.447805 O    1019 MOH    -0.6497 ****
6421 HO1   -10.058539  -37.041674   -7.771103 H    1019 MOH     0.4215 ****
6422 HC1    -1.125198  -28.111651   -7.926667 H    1020 MOH     0.0372 ****
6423 C1     -0.381571  -28.632576   -8.529122 C    1020 MOH     0.1166 ****
6424 HC2     0.534107  -28.043065   -8.577205 H    1020 MOH     0.0372 ****
6425 HC3    -0.717589  -28.753825   -9.559376 H    1020 MOH     0.0372 ****
6426 O1     -0.043243  -29.861403   -7.945052 O    1020 MOH    -0.6497 ****
6427 HO1    -0.747033  -30.132888   -7.351789 H    1020 MOH     0.4215 ****
6428 HC1    -1.374613  -32.964090   -5.894442 H    1021 MOH     0.0372 ****
6429 C1     -2.311653  -32.708118   -6.387295 C    1021 MOH     0.1166 ****
6430 HC2    -3.149965  -33.040024   -5.774234 H    1021 MOH     0.0372 ****
6431 HC3    -2.330128  -33.206998   -7.356032 H    1021 MOH     0.0372 ****
6432 O1     -2.342252  -31.324565   -6.604377 O    1021 MOH    -0.6497 ****
6433 HO1    -3.258507  -31.083290   -6.756405 H    1021 MOH     0.4215 ****
6434 HC1   -11.321204  -33.666277    3.347444 H    1022 MOH     0.0372 ****
6435 C1    -12.330989  -33.267010    3.439367 C    1022 MOH     0.1166 ****
6436 HC2   -12.943558  -34.008389    3.952727 H    1022 MOH     0.0372 ****
6437 HC3   -12.732248  -33.075133    2.443761 H    1022 MOH     0.0372 ****
6438 O1    -12.262862  -32.078191    4.201629 O    1022 MOH    -0.6497 ****
6439 HO1   -11.928576  -31.384985    3.627458 H    1022 MOH     0.4215 ****
6440 HC1   -15.577430  -26.430076    1.771303 H    1023 MOH     0.0372 ****
6441 C1    -14.714869  -25.967122    1.291884 C    1023 MOH     0.1166 ****
6442 HC2   -13.927940  -25.852405    2.037882 H    1023 MOH     0.0372 ****
6443 HC3   -15.031834  -24.975079    0.969443 H    1023 MOH     0.0372 ****
6444 O1    -14.332085  -26.754633    0.132936 O    1023 MOH    -0.6497 ****
6445 HO1   -15.026060  -26.708501   -0.528209 H    1023 MOH     0.4215 ****
6446 HC1    -8.891136  -30.992659    8.032026 H    1024 MOH     0.0372 ****
6447 C1     -8.283187  -30.121865    7.783832 C    1024 MOH     0.1166 ****
6448 HC2    -7.233564  -30.391309    7.669280 H    1024 MOH     0.0372 ****
6449 HC3    -8.339767  -29.399674    8.599126 H    1024 MOH     0.0372 ****
6450 O1     -8.678094  -29.559707    6.573972 O    1024 MOH    -0.6497 ****
6451 HO1    -8.396347  -30.158199    5.878179 H    1024 MOH     0.4215 ****
6452 HC1    -7.418316  -33.998591  -12.677010 H    1025 MOH     0.0372 ****
6453 C1     -6.494555  -33.810389  -13.225018 C    1025 MOH     0.1166 ****
6454 HC2    -5.903926  -34.725273  -13.187541 H    1025 MOH     0.0372 ****
6455 HC3    -5.972053  -32.986952  -12.737821 H    1025 MOH     0.0372 ****
6456 O1     -6.767642  -33.458070  -14.579127 O    1025 MOH    -0.6497 ****
6457 HO1    -5.985910  -33.035942  -14.942580 H    1025 MOH     0.4215 ****
6458 HC1    -3.310469  -24.742786   -2.655893 H    1026 MOH     0.0372 ****
6459 C1     -4.325450  -25.126131   -2.759838 C    1026 MOH     0.1166 ****
6460 HC2    -5.046561  -24.308818   -2.738624 H    1026 MOH     0.0372 ****
6461 HC3    -4.560432  -25.820970   -1.953736 H    1026 MOH     0.0372 ****
6462 O1     -4.453045  -25.838116   -3.942120 O    1026 MOH    -0.6497 ****
6463 HO1    -3.732512  -26.471309   -3.973940 H    1026 MOH     0.4215 ****
6464 HC1    -0.436419  -33.024919    4.603972 H    1027 MOH     0.0372 ****
6465 C1     -1.058803  -32.130447    4.594780 C    1027 MOH     0.1166 ****
6466 HC2    -0.614820  -31.343344    5.204306 H    1027 MOH     0.0372 ****
6467 HC3    -2.030483  -32.408464    5.004195 H    1027 MOH     0.0372 ****
6468 O1     -1.238359  -31.677699    3.273197 O    1027 MOH    -0.6497 ****
6469 HO1    -0.380993  -31.402132    2.940150 H    1027 MOH     0.4215 ****
6470 HC1    -4.452467  -27.378029   -6.876613 H    1028 MOH     0.0372 ****
6471 C1     -3.859529  -27.716466   -7.725849 C    1028 MOH     0.1166 ****
6472 HC2    -3.492334  -28.712184   -7.477654 H    1028 MOH     0.0372 ****
6473 HC3    -3.012556  -27.046531   -7.877876 H    1028 MOH     0.0372 ****
6474 O1     -4.663778  -27.767497   -8.896110 O    1028 MOH    -0.6497 ****
6475 HO1    -4.256746  -28.417837   -9.473817 H    1028 MOH     0.4215 ****
6476 HC1    -8.695992  -27.057145   -1.214102 H    1029 MOH     0.0372 ****
6477 C1     -8.514704  -28.095321   -0.934795 C    1029 MOH     0.1166 ****
6478 HC2    -9.174038  -28.732596   -1.523815 H    1029 MOH     0.0372 ****
6479 HC3    -8.739293  -28.250047    0.120915 H    1029 MOH     0.0372 ****
6480 O1     -7.184489  -28.490913   -1.175918 O    1029 MOH    -0.6497 ****
6481 HO1    -7.004933  -28.382728   -2.112835 H    1029 MOH     0.4215 ****
6482 HC1    -4.807538  -32.845290    2.444468 H    1030 MOH     0.0372 ****
6483 C1     -4.353741  -31.965923    2.901259 C    1030 MOH     0.1166 ****
6484 HC2    -3.516583  -31.649122    2.279005 H    1030 MOH     0.0372 ****
6485 HC3    -4.050054  -32.214954    3.918079 H    1030 MOH     0.0372 ****
6486 O1     -5.304059  -30.968164    2.865904 O    1030 MOH    -0.6497 ****
6487 HO1    -5.631994  -30.912642    1.965050 H    1030 MOH     0.4215 ****
6488 HC1   -12.974735  -21.372696    0.115258 H    1031 MOH     0.0372 ****
6489 C1    -13.882329  -21.436383    0.714885 C    1031 MOH     0.1166 ****
6490 HC2   -14.493166  -22.283090    0.402344 H    1031 MOH     0.0372 ****
6491 HC3   -14.431390  -20.504352    0.582656 H    1031 MOH     0.0372 ****
6492 O1    -13.510516  -21.619686    2.039296 O    1031 MOH    -0.6497 ****
6493 HO1   -12.983395  -22.422302    2.037882 H    1031 MOH     0.4215 ****
6494 HC1     2.555410  -29.526231    7.821308 H    1032 MOH     0.0372 ****
6495 C1      2.302531  -28.661561    8.435077 C    1032 MOH     0.1166 ****
6496 HC2     3.110244  -28.478258    9.142891 H    1032 MOH     0.0372 ****
6497 HC3     1.384544  -28.894263    8.973892 H    1032 MOH     0.0372 ****
6498 O1      2.110273  -27.553167    7.578771 O    1032 MOH    -0.6497 ****
6499 HO1     1.424958  -27.824244    6.963588 H    1032 MOH     0.4215 ****
6500 HC1    -5.438004  -35.444198   -4.908028 H    1033 MOH     0.0372 ****
6501 C1     -4.510780  -35.620970   -4.364263 C    1033 MOH     0.1166 ****
6502 HC2    -4.576598  -36.545652   -3.790799 H    1033 MOH     0.0372 ****
6503 HC3    -4.287345  -34.784469   -3.701704 H    1033 MOH     0.0372 ****
6504 O1     -3.507345  -35.723032   -5.294815 O    1033 MOH    -0.6497 ****
6505 HO1    -2.697323  -35.382145   -4.908028 H    1033 MOH     0.4215 ****
6506 HC1    -7.534941  -35.300087  -10.180923 H    1034 MOH     0.0372 ****
6507 C1     -7.254926  -36.208439   -9.647058 C    1034 MOH     0.1166 ****
6508 HC2    -6.446635  -36.704053  -10.184459 H    1034 MOH     0.0372 ****
6509 HC3    -8.085733  -36.914300   -9.623723 H    1034 MOH     0.0372 ****
6510 O1     -6.817294  -35.947160   -8.327596 O    1034 MOH    -0.6497 ****
6511 HO1    -7.164859  -36.651797   -7.776053 H    1034 MOH     0.4215 ****
6512 HC1    -3.844518  -33.598508   11.705446 H    1035 MOH     0.0372 ****
6513 C1     -4.735947  -32.971847   11.673626 C    1035 MOH     0.1166 ****
6514 HC2    -5.624489  -33.602590   11.633321 H    1035 MOH     0.0372 ****
6515 HC3    -4.726709  -32.353759   10.775600 H    1035 MOH     0.0372 ****
6516 O1     -4.725554  -32.124323   12.795097 O    1035 MOH    -0.6497 ****
6517 HO1    -3.969803  -31.544202   12.678425 H    1035 MOH     0.4215 ****
6518 HC1     3.408734  -33.001649   -0.755190 H    1036 MOH     0.0372 ****
6519 C1      2.398948  -33.322532   -1.011162 C    1036 MOH     0.1166 ****
6520 HC2     1.701509  -32.891830   -0.292035 H    1036 MOH     0.0372 ****
6521 HC3     2.317542  -34.408881   -0.976514 H    1036 MOH     0.0372 ****
6522 O1      2.043878  -32.863253   -2.283248 O    1036 MOH    -0.6497 ****
6523 HO1     2.642590  -33.270684   -2.912573 H    1036 MOH     0.4215 ****
6524 HC1    -2.187523  -32.336612   10.291939 H    1037 MOH     0.0372 ****
6525 C1     -1.962933  -31.270676   10.342144 C    1037 MOH     0.1166 ****
6526 HC2    -2.322045  -30.722807    9.470988 H    1037 MOH     0.0372 ****
6527 HC3    -0.876937  -31.224136   10.270019 H    1037 MOH     0.0372 ****
6528 O1     -2.323777  -30.672592   11.608572 O    1037 MOH    -0.6497 ****
6529 HO1    -2.395946  -29.723823   11.482707 H    1037 MOH     0.4215 ****
6530 HC1    -7.945437  -34.430518    6.741556 H    1038 MOH     0.0372 ****
6531 C1     -7.600181  -35.273550    6.144051 C    1038 MOH     0.1166 ****
6532 HC2    -6.860018  -35.805498    6.742970 H    1038 MOH     0.0372 ****
6533 HC3    -7.158508  -34.887756    5.225519 H    1038 MOH     0.0372 ****
6534 O1     -8.652691  -36.191293    5.810297 O    1038 MOH    -0.6497 ****
6535 HO1    -8.373831  -36.704461    5.048743 H    1038 MOH     0.4215 ****
6536 HC1    -0.788025  -25.893229    0.519017 H    1039 MOH     0.0372 ****
6537 C1     -1.280505  -25.456812   -0.350018 C    1039 MOH     0.1166 ****
6538 HC2    -2.222741  -24.969364   -0.099702 H    1039 MOH     0.0372 ****
6539 HC3    -1.532807  -26.291272   -1.004799 H    1039 MOH     0.0372 ****
6540 O1     -0.442770  -24.531721   -1.050053 O    1039 MOH    -0.6497 ****
6541 HO1    -0.983747  -23.831984   -1.421992 H    1039 MOH     0.4215 ****
6542 HC1    -1.912704  -32.729347    0.164756 H    1040 MOH     0.0372 ****
6543 C1     -1.249328  -33.551151    0.434164 C    1040 MOH     0.1166 ****
6544 HC2    -0.233192  -33.164948    0.511946 H    1040 MOH     0.0372 ****
6545 HC3    -1.263185  -34.333763   -0.324562 H    1040 MOH     0.0372 ****
6546 O1     -1.627493  -33.978179    1.721098 O    1040 MOH    -0.6497 ****
6547 HO1    -1.573799  -33.209039    2.292440 H    1040 MOH     0.4215 ****
6548 HC1     1.867208  -26.530097    4.268097 H    1041 MOH     0.0372 ****
6549 C1      1.527727  -27.275966    3.548969 C    1041 MOH     0.1166 ****
6550 HC2     1.021390  -28.113284    4.030509 H    1041 MOH     0.0372 ****
6551 HC3     2.414537  -27.672784    3.053994 H    1041 MOH     0.0372 ****
6552 O1      0.686527  -26.655429    2.594375 O    1041 MOH    -0.6497 ****
6553 HO1     1.215957  -25.970388    2.178596 H    1041 MOH     0.4215 ****
6554 HC1    -7.426399  -33.766298   -4.712867 H    1042 MOH     0.0372 ****
6555 C1     -8.056865  -34.079832   -3.881309 C    1042 MOH     0.1166 ****
6556 HC2    -9.033165  -34.392551   -4.251833 H    1042 MOH     0.0372 ****
6557 HC3    -8.227184  -33.252721   -3.191173 H    1042 MOH     0.0372 ****
6558 O1     -7.454689  -35.133930   -3.185516 O    1042 MOH    -0.6497 ****
6559 HO1    -8.105363  -35.488289   -2.575990 H    1042 MOH     0.4215 ****
6560 HC1    -4.764237  -29.033884   -1.569070 H    1043 MOH     0.0372 ****
6561 C1     -4.107789  -28.758316   -0.743876 C    1043 MOH     0.1166 ****
6562 HC2    -4.654540  -28.794242    0.199404 H    1043 MOH     0.0372 ****
6563 HC3    -3.761379  -27.735654   -0.894490 H    1043 MOH     0.0372 ****
6564 O1     -2.988885  -29.630334   -0.678822 O    1043 MOH    -0.6497 ****
6565 HO1    -2.383822  -29.303736   -0.008485 H    1043 MOH     0.4215 ****
6566 HC1    -0.987789  -24.319024    6.198498 H    1044 MOH     0.0372 ****
6567 C1     -1.299558  -24.737887    7.155921 C    1044 MOH     0.1166 ****
6568 HC2    -1.826679  -23.991609    7.748476 H    1044 MOH     0.0372 ****
6569 HC3    -0.406974  -25.071426    7.684130 H    1044 MOH     0.0372 ****
6570 O1     -2.114199  -25.851996    6.928940 O    1044 MOH    -0.6497 ****
6571 HO1    -2.800091  -25.610722    6.303150 H    1044 MOH     0.4215 ****
6572 HC1    -8.308013  -18.924839   -1.520987 H    1045 MOH     0.0372 ****
6573 C1     -9.215607  -18.545169   -1.990506 C    1045 MOH     0.1166 ****
6574 HC2    -9.085126  -18.565173   -3.073086 H    1045 MOH     0.0372 ****
6575 HC3    -9.358790  -17.514342   -1.668772 H    1045 MOH     0.0372 ****
6576 O1    -10.355874  -19.338395   -1.616446 O    1045 MOH    -0.6497 ****
6577 HO1   -11.128946  -18.833392   -1.878783 H    1045 MOH     0.4215 ****
6578 HC1    -6.150455  -27.394767    4.990760 H    1046 MOH     0.0372 ****
6579 C1     -5.568486  -27.152267    4.101219 C    1046 MOH     0.1166 ****
6580 HC2    -5.604859  -27.974071    3.386335 H    1046 MOH     0.0372 ****
6581 HC3    -4.541380  -27.008972    4.438509 H    1046 MOH     0.0372 ****
6582 O1     -6.034407  -25.907926    3.569475 O    1046 MOH    -0.6497 ****
6583 HO1    -5.618715  -25.230642    4.107583 H    1046 MOH     0.4215 ****
6584 HC1    -8.656155  -31.961024    2.662257 H    1047 MOH     0.0372 ****
6585 C1     -8.493342  -32.185152    3.716553 C    1047 MOH     0.1166 ****
6586 HC2    -7.925807  -33.111876    3.808477 H    1047 MOH     0.0372 ****
6587 HC3    -9.477147  -32.302728    4.170516 H    1047 MOH     0.0372 ****
6588 O1     -7.800522  -31.108601    4.308402 O    1047 MOH    -0.6497 ****
6589 HO1    -6.962209  -31.017970    3.850197 H    1047 MOH     0.4215 ****
6590 HC1   -10.720759  -38.027185    7.421793 H    1048 MOH     0.0372 ****
6591 C1    -11.113935  -37.592401    8.340325 C    1048 MOH     0.1166 ****
6592 HC2   -11.298110  -36.527689    8.198903 H    1048 MOH     0.0372 ****
6593 HC3   -10.414764  -37.736512    9.164104 H    1048 MOH     0.0372 ****
6594 O1    -12.278451  -38.253355    8.669129 O    1048 MOH    -0.6497 ****
6595 HO1   -12.702803  -37.803873    9.403813 H    1048 MOH     0.4215 ****
6596 HC1    -8.933860  -32.065944   -6.673674 H    1049 MOH     0.0372 ****
6597 C1     -9.067228  -33.088606   -7.026520 C    1049 MOH     0.1166 ****
6598 HC2   -10.066044  -33.166173   -7.455027 H    1049 MOH     0.0372 ****
6599 HC3    -8.993905  -33.805490   -6.209105 H    1049 MOH     0.0372 ****
6600 O1     -8.146932  -33.365806   -8.038390 O    1049 MOH    -0.6497 ****
6601 HO1    -8.030884  -34.313759   -8.130314 H    1049 MOH     0.4215 ****
6602 HC1    -5.798271  -24.785244   -7.363810 H    1050 MOH     0.0372 ****
6603 C1     -6.645821  -25.449872   -7.194104 C    1050 MOH     0.1166 ****
6604 HC2    -7.511269  -24.806064   -7.037834 H    1050 MOH     0.0372 ****
6605 HC3    -6.413149  -26.051630   -6.315878 H    1050 MOH     0.0372 ****
6606 O1     -6.779189  -26.151651   -8.409621 O    1050 MOH    -0.6497 ****
6607 HO1    -5.933371  -26.557449   -8.614682 H    1050 MOH     0.4215 ****
6608 HC1    -4.380876  -29.402940    7.217439 H    1051 MOH     0.0372 ****
6609 C1     -4.317368  -30.325989    6.641147 C    1051 MOH     0.1166 ****
6610 HC2    -3.285643  -30.530114    6.355476 H    1051 MOH     0.0372 ****
6611 HC3    -4.934555  -30.214129    5.750193 H    1051 MOH     0.0372 ****
6612 O1     -4.835251  -31.379270    7.406237 O    1051 MOH    -0.6497 ****
6613 HO1    -4.585258  -32.203931    6.981973 H    1051 MOH     0.4215 ****
6614 HC1   -16.431908  -30.095329   -1.265014 H    1052 MOH     0.0372 ****
6615 C1    -16.598185  -29.024902   -1.146220 C    1052 MOH     0.1166 ****
6616 HC2   -16.244847  -28.704019   -0.166170 H    1052 MOH     0.0372 ****
6617 HC3   -17.665128  -28.811797   -1.218345 H    1052 MOH     0.0372 ****
6618 O1    -15.911138  -28.310468   -2.155969 O    1052 MOH    -0.6497 ****
6619 HO1   -16.001782  -28.840374   -2.950757 H    1052 MOH     0.4215 ****
6620 HC1    -9.768709  -23.779320   -4.113947 H    1053 MOH     0.0372 ****
6621 C1     -8.897487  -24.434558   -4.133039 C    1053 MOH     0.1166 ****
6622 HC2    -8.898065  -25.006106   -5.060763 H    1053 MOH     0.0372 ****
6623 HC3    -8.925200  -25.143686   -3.305017 H    1053 MOH     0.0372 ****
6624 O1     -7.719115  -23.649905   -4.059500 O    1053 MOH    -0.6497 ****
6625 HO1    -7.748560  -23.139187   -3.247034 H    1053 MOH     0.4215 ****
6626 HC1   -13.953921  -30.544402   -1.588869 H    1054 MOH     0.0372 ****
6627 C1    -13.686608  -31.549101   -1.260064 C    1054 MOH     0.1166 ****
6628 HC2   -12.742063  -31.838549   -1.720391 H    1054 MOH     0.0372 ****
6629 HC3   -14.449287  -32.262719   -1.569777 H    1054 MOH     0.0372 ****
6630 O1    -13.519176  -31.541345    0.168999 O    1054 MOH    -0.6497 ****
6631 HO1   -14.347674  -31.353550    0.615890 H    1054 MOH     0.4215 ****
6632 HC1     3.180680  -30.728930    5.773527 H    1055 MOH     0.0372 ****
6633 C1      4.039200  -30.367222    5.207842 C    1055 MOH     0.1166 ****
6634 HC2     3.691058  -29.847931    4.315473 H    1055 MOH     0.0372 ****
6635 HC3     4.668512  -31.207806    4.914392 H    1055 MOH     0.0372 ****
6636 O1      4.788601  -29.477649    6.003337 O    1055 MOH    -0.6497 ****
6637 HO1     4.956032  -29.896104    6.851158 H    1055 MOH     0.4215 ****
6638 HC1     3.979733  -29.407839   -4.158495 H    1056 MOH     0.0372 ****
6639 C1      3.532864  -28.993875   -5.062177 C    1056 MOH     0.1166 ****
6640 HC2     2.505181  -28.675033   -4.890350 H    1056 MOH     0.0372 ****
6641 HC3     3.563464  -29.766281   -5.831509 H    1056 MOH     0.0372 ****
6642 O1      4.343464  -27.929572   -5.450379 O    1056 MOH    -0.6497 ****
6643 HO1     4.525329  -27.383336   -4.682461 H    1056 MOH     0.4215 ****
6644 HC1    -2.794317  -31.660145   -9.564326 H    1057 MOH     0.0372 ****
6645 C1     -3.718655  -31.144936   -9.825956 C    1057 MOH     0.1166 ****
6646 HC2    -4.431683  -31.191884   -9.002176 H    1057 MOH     0.0372 ****
6647 HC3    -4.154555  -31.591151  -10.719032 H    1057 MOH     0.0372 ****
6648 O1     -3.480787  -29.795675  -10.105263 O    1057 MOH    -0.6497 ****
6649 HO1    -2.976183  -29.765465  -10.921264 H    1057 MOH     0.4215 ****
6650 HC1   -11.072366  -24.466810    0.487904 H    1058 MOH     0.0372 ****
6651 C1    -11.443025  -24.863627    1.432598 C    1058 MOH     0.1166 ****
6652 HC2   -10.588546  -24.986510    2.097986 H    1058 MOH     0.0372 ****
6653 HC3   -11.914720  -25.839341    1.316633 H    1058 MOH     0.0372 ****
6654 O1    -12.298080  -23.928330    1.994748 O    1058 MOH    -0.6497 ****
6655 HO1   -12.113328  -23.926697    2.936615 H    1058 MOH     0.4215 ****
6656 HC1   -11.784239  -29.141661    6.226075 H    1059 MOH     0.0372 ****
6657 C1    -11.850634  -29.402123    7.282493 C    1059 MOH     0.1166 ****
6658 HC2   -11.742669  -30.480307    7.406237 H    1059 MOH     0.0372 ****
6659 HC3   -12.834439  -29.087364    7.631096 H    1059 MOH     0.0372 ****
6660 O1    -10.866829  -28.683198    8.005863 O    1059 MOH    -0.6497 ****
6661 HO1   -10.044105  -28.792201    7.522909 H    1059 MOH     0.4215 ****
6662 HC1    -4.237693  -26.580720   11.074707 H    1060 MOH     0.0372 ****
6663 C1     -3.800062  -27.484173   10.649735 C    1060 MOH     0.1166 ****
6664 HC2    -3.556420  -27.289030    9.606046 H    1060 MOH     0.0372 ****
6665 HC3    -4.505584  -28.310468   10.743073 H    1060 MOH     0.0372 ****
6666 O1     -2.663837  -27.781786   11.397147 O    1060 MOH    -0.6497 ****
6667 HO1    -2.036257  -27.055921   11.349064 H    1060 MOH     0.4215 ****
6668 HC1    -7.457576  -33.778545   10.441846 H    1061 MOH     0.0372 ****
6669 C1     -7.868072  -34.735071   10.764994 C    1061 MOH     0.1166 ****
6670 HC2    -7.089226  -35.497679   10.786207 H    1061 MOH     0.0372 ****
6671 HC3    -8.653268  -35.013904   10.062837 H    1061 MOH     0.0372 ****
6672 O1     -8.463897  -34.590551   12.020815 O    1061 MOH    -0.6497 ****
6673 HO1    -7.843246  -34.141478   12.599229 H    1061 MOH     0.4215 ****
6674 HC1   -11.074675  -23.053046   -2.587304 H    1062 MOH     0.0372 ****
6675 C1    -10.508294  -22.748085   -1.706956 C    1062 MOH     0.1166 ****
6676 HC2   -10.122625  -23.641740   -1.215516 H    1062 MOH     0.0372 ****
6677 HC3   -11.162432  -22.224302   -1.010456 H    1062 MOH     0.0372 ****
6678 O1     -9.413638  -21.933629   -2.112128 O    1062 MOH    -0.6497 ****
6679 HO1    -9.764667  -21.058345   -2.288905 H    1062 MOH     0.4215 ****
6680 HC1   -19.158156  -32.457862   -3.190466 H    1063 MOH     0.0372 ****
6681 C1    -18.599281  -31.825485   -2.501037 C    1063 MOH     0.1166 ****
6682 HC2   -18.554248  -30.824869   -2.931665 H    1063 MOH     0.0372 ****
6683 HC3   -17.586031  -32.219853   -2.420426 H    1063 MOH     0.0372 ****
6684 O1    -19.264389  -31.813238   -1.212688 O    1063 MOH    -0.6497 ****
6685 HO1   -18.797312  -32.431326   -0.647003 H    1063 MOH     0.4215 ****
6686 HC1    -8.952913  -36.808156   -0.224860 H    1064 MOH     0.0372 ****
6687 C1     -9.264682  -35.764673   -0.260215 C    1064 MOH     0.1166 ****
6688 HC2    -8.458701  -35.107393    0.067882 H    1064 MOH     0.0372 ****
6689 HC3   -10.107613  -35.641382    0.418607 H    1064 MOH     0.0372 ****
6690 O1     -9.717902  -35.418479   -1.554221 O    1064 MOH    -0.6497 ****
6691 HO1    -9.929212  -34.482774   -1.524522 H    1064 MOH     0.4215 ****
6692 HC1    -2.256805  -28.794650    7.272593 H    1065 MOH     0.0372 ****
6693 C1     -1.331312  -28.494996    7.766154 C    1065 MOH     0.1166 ****
6694 HC2    -0.887330  -29.349051    8.278099 H    1065 MOH     0.0372 ****
6695 HC3    -1.577263  -27.743002    8.515687 H    1065 MOH     0.0372 ****
6696 O1     -0.449121  -27.995708    6.740142 O    1065 MOH    -0.6497 ****
6697 HO1    -0.639646  -27.057554    6.665189 H    1065 MOH     0.4215 ****
6698 HC1   -13.356941  -37.026569    6.474977 H    1066 MOH     0.0372 ****
6699 C1    -12.873699  -37.177212    5.509776 C    1066 MOH     0.1166 ****
6700 HC2   -12.418169  -38.166806    5.489977 H    1066 MOH     0.0372 ****
6701 HC3   -12.113328  -36.408072    5.371183 H    1066 MOH     0.0372 ****
6702 O1    -13.904846  -37.127814    4.523362 O    1066 MOH    -0.6497 ****
6703 HO1   -14.417533  -36.326831    4.653470 H    1066 MOH     0.4215 ****
6704 HC1    -3.839899  -24.925681    2.620538 H    1067 MOH     0.0372 ****
6705 C1     -2.894199  -24.582752    3.040559 C    1067 MOH     0.1166 ****
6706 HC2    -3.007937  -23.608264    3.516442 H    1067 MOH     0.0372 ****
6707 HC3    -2.164428  -24.469259    2.238700 H    1067 MOH     0.0372 ****
6708 O1     -2.452526  -25.504985    4.012831 O    1067 MOH    -0.6497 ****
6709 HO1    -1.621142  -25.893229    3.730696 H    1067 MOH     0.4215 ****
6710 HC1    -3.921883  -32.991443   -2.308703 H    1068 MOH     0.0372 ****
6711 C1     -3.140150  -32.318241   -2.660136 C    1068 MOH     0.1166 ****
6712 HC2    -2.580698  -32.753026   -3.488158 H    1068 MOH     0.0372 ****
6713 HC3    -2.454836  -32.113300   -1.838477 H    1068 MOH     0.0372 ****
6714 O1     -3.714037  -31.118808   -3.105613 O    1068 MOH    -0.6497 ****
6715 HO1    -3.518892  -30.475408   -2.419719 H    1068 MOH     0.4215 ****
6716 HC1     0.977974  -10.250543   -2.037175 H    1069 MOH     0.0372 ****
6717 C1     -0.058370  -10.111739   -1.730290 C    1069 MOH     0.1166 ****
6718 HC2    -0.621864   -9.747581   -2.588718 H    1069 MOH     0.0372 ****
6719 HC3    -0.128229   -9.361787   -0.941866 H    1069 MOH     0.0372 ****
6720 O1     -0.583759  -11.354446   -1.313097 O    1069 MOH    -0.6497 ****
6721 HO1    -1.346439  -11.202170   -0.750947 H    1069 MOH     0.4215 ****
6722 HC1    -4.523597  -20.791514    2.054145 H    1070 MOH     0.0372 ****
6723 C1     -5.324382  -21.185473    2.679935 C    1070 MOH     0.1166 ****
6724 HC2    -5.890185  -21.915830    2.100814 H    1070 MOH     0.0372 ****
6725 HC3    -5.996995  -20.408577    3.041266 H    1070 MOH     0.0372 ****
6726 O1     -4.827283  -21.926444    3.724332 O    1070 MOH    -0.6497 ****
6727 HO1    -4.282842  -21.330402    4.243348 H    1070 MOH     0.4215 ****
6728 HC1     7.585747  -19.552480    6.560537 H    1071 MOH     0.0372 ****
6729 C1      7.646947  -18.772726    7.318555 C    1071 MOH     0.1166 ****
6730 HC2     8.007213  -19.218533    8.246279 H    1071 MOH     0.0372 ****
6731 HC3     6.653904  -18.347331    7.464219 H    1071 MOH     0.0372 ****
6732 O1      8.518168  -17.750064    6.890756 O    1071 MOH    -0.6497 ****
6733 HO1     9.404978  -18.110139    6.824288 H    1071 MOH     0.4215 ****
6734 HC1     7.207006  -25.657017   -6.852572 H    1072 MOH     0.0372 ****
6735 C1      7.019944  -26.642937   -6.427600 C    1072 MOH     0.1166 ****
6736 HC2     6.627923  -26.548223   -5.415023 H    1072 MOH     0.0372 ****
6737 HC3     7.977191  -27.159371   -6.359011 H    1072 MOH     0.0372 ****
6738 O1      6.178745  -27.446778   -7.276836 O    1072 MOH    -0.6497 ****
6739 HO1     5.462831  -27.792972   -6.739434 H    1072 MOH     0.4215 ****
6740 HC1     9.837414  -25.185082   -0.215667 H    1073 MOH     0.0372 ****
6741 C1      8.988709  -24.750298    0.312541 C    1073 MOH     0.1166 ****
6742 HC2     8.852454  -23.723145   -0.025456 H    1073 MOH     0.0372 ****
6743 HC3     9.153253  -24.762545    1.390172 H    1073 MOH     0.0372 ****
6744 O1      7.823038  -25.448402   -0.021213 O    1073 MOH    -0.6497 ****
6745 HO1     7.850174  -26.248977    0.508410 H    1073 MOH     0.4215 ****
6746 HC1    17.913966  -16.414684   -3.835347 H    1074 MOH     0.0372 ****
6747 C1     17.719399  -15.673305   -3.060358 C    1074 MOH     0.1166 ****
6748 HC2    16.655343  -15.631256   -2.827720 H    1074 MOH     0.0372 ****
6749 HC3    18.020776  -14.684936   -3.407547 H    1074 MOH     0.0372 ****
6750 O1     18.389126  -16.003578   -1.849084 O    1074 MOH    -0.6497 ****
6751 HO1    18.171465  -16.898050   -1.576848 H    1074 MOH     0.4215 ****
6752 HC1     2.027596  -11.701866    2.631852 H    1075 MOH     0.0372 ****
6753 C1      2.631505  -11.150322    3.352393 C    1075 MOH     0.1166 ****
6754 HC2     3.443259  -11.785557    3.705947 H    1075 MOH     0.0372 ****
6755 HC3     1.983140  -10.864548    4.181122 H    1075 MOH     0.0372 ****
6756 O1      3.136109  -10.026415    2.696905 O    1075 MOH    -0.6497 ****
6757 HO1     3.949018   -9.764728    3.136019 H    1075 MOH     0.4215 ****
6758 HC1     8.731788  -18.109323   -9.829491 H    1076 MOH     0.0372 ****
6759 C1      7.939663  -18.641678   -9.303404 C    1076 MOH     0.1166 ****
6760 HC2     7.966799  -18.384074   -8.244865 H    1076 MOH     0.0372 ****
6761 HC3     8.105363  -19.709248   -9.445532 H    1076 MOH     0.0372 ****
6762 O1      6.711062  -18.226082   -9.859190 O    1076 MOH    -0.6497 ****
6763 HO1     6.016510  -18.584932   -9.301282 H    1076 MOH     0.4215 ****
6764 HC1     9.428072  -10.218291  -10.948841 H    1077 MOH     0.0372 ****
6765 C1      9.965585   -9.875771  -11.833432 C    1077 MOH     0.1166 ****
6766 HC2     9.637650  -10.449768  -12.700345 H    1077 MOH     0.0372 ****
6767 HC3    11.025023  -10.060299  -11.655241 H    1077 MOH     0.0372 ****
6768 O1      9.705200   -8.495075  -12.102132 O    1077 MOH    -0.6497 ****
6769 HO1     9.964431   -8.290135  -13.002986 H    1077 MOH     0.4215 ****
6770 HC1     0.089431  -17.023382    7.016621 H    1078 MOH     0.0372 ****
6771 C1     -0.930746  -17.316096    7.264815 C    1078 MOH     0.1166 ****
6772 HC2    -1.091827  -17.258533    8.340325 H    1078 MOH     0.0372 ****
6773 HC3    -1.139170  -18.338350    6.948031 H    1078 MOH     0.0372 ****
6774 O1     -1.816979  -16.423665    6.663774 O    1078 MOH    -0.6497 ****
6775 HO1    -1.365491  -16.047260    5.904342 H    1078 MOH     0.4215 ****
6776 HC1    12.796911  -12.050510   -2.306582 H    1079 MOH     0.0372 ****
6777 C1     12.845408  -13.138083   -2.357494 C    1079 MOH     0.1166 ****
6778 HC2    12.467244  -13.492851   -3.315623 H    1079 MOH     0.0372 ****
6779 HC3    12.238613  -13.584707   -1.569777 H    1079 MOH     0.0372 ****
6780 O1     14.181974  -13.572459   -2.283955 O    1079 MOH    -0.6497 ****
6781 HO1    14.149643  -14.531843   -2.262741 H    1079 MOH     0.4215 ****
6782 HC1     3.886664  -13.075213   -7.879998 H    1080 MOH     0.0372 ****
6783 C1      3.932275  -13.530002   -8.869947 C    1080 MOH     0.1166 ****
6784 HC2     4.849685  -14.108898   -8.978842 H    1080 MOH     0.0372 ****
6785 HC3     3.921883  -12.752289   -9.632916 H    1080 MOH     0.0372 ****
6786 O1      2.828959  -14.366502   -9.087029 O    1080 MOH    -0.6497 ****
6787 HO1     3.088189  -15.254034   -8.829642 H    1080 MOH     0.4215 ****
6788 HC1    11.993817  -17.632080   -9.384721 H    1081 MOH     0.0372 ****
6789 C1     12.192425  -16.671472   -8.910252 C    1081 MOH     0.1166 ****
6790 HC2    13.257059  -16.454284   -8.993691 H    1081 MOH     0.0372 ****
6791 HC3    11.963217  -16.706582   -7.845350 H    1081 MOH     0.0372 ****
6792 O1     11.399146  -15.675755   -9.561498 O    1081 MOH    -0.6497 ****
6793 HO1    11.446489  -14.899675   -8.997934 H    1081 MOH     0.4215 ****
6794 HC1    -5.311680  -14.236679    3.220871 H    1082 MOH     0.0372 ****
6795 C1     -4.271295  -14.209327    2.894895 C    1082 MOH     0.1166 ****
6796 HC2    -3.687017  -14.849052    3.557454 H    1082 MOH     0.0372 ****
6797 HC3    -3.930081  -13.175642    2.948635 H    1082 MOH     0.0372 ****
6798 O1     -4.204322  -14.691468    1.571898 O    1082 MOH    -0.6497 ****
6799 HO1    -4.798993  -15.444278    1.528058 H    1082 MOH     0.4215 ****
6800 HC1    -2.431280  -18.918879   -0.939038 H    1083 MOH     0.0372 ****
6801 C1     -1.516757  -18.612693   -1.446740 C    1083 MOH     0.1166 ****
6802 HC2    -0.921509  -17.958271   -0.809637 H    1083 MOH     0.0372 ****
6803 HC3    -1.792153  -18.066457   -2.349009 H    1083 MOH     0.0372 ****
6804 O1     -0.814699  -19.752114   -1.844841 O    1083 MOH    -0.6497 ****
6805 HO1     0.120031  -19.553297   -1.755039 H    1083 MOH     0.4215 ****
6806 HC1    10.835075  -23.099342   -4.372748 H    1084 MOH     0.0372 ****
6807 C1     10.882418  -22.375926   -3.558161 C    1084 MOH     0.1166 ****
6808 HC2    10.089138  -21.648427   -3.729281 H    1084 MOH     0.0372 ****
6809 HC3    11.843128  -21.862349   -3.604830 H    1084 MOH     0.0372 ****
6810 O1     10.697088  -23.017692   -2.264156 O    1084 MOH    -0.6497 ****
6811 HO1    10.505408  -22.342041   -1.608668 H    1084 MOH     0.4215 ****
6812 HC1    -5.485463  -19.256500   -5.794740 H    1085 MOH     0.0372 ****
6813 C1     -5.442739  -19.014817   -4.732666 C    1085 MOH     0.1166 ****
6814 HC2    -4.405818  -19.076871   -4.401740 H    1085 MOH     0.0372 ****
6815 HC3    -6.040296  -19.716596   -4.150717 H    1085 MOH     0.0372 ****
6816 O1     -5.876329  -17.721079   -4.463258 O    1085 MOH    -0.6497 ****
6817 HO1    -6.645937  -17.529610   -5.004195 H    1085 MOH     0.4215 ****
6818 HC1    -8.088735  -15.318946    1.920502 H    1086 MOH     0.0372 ****
6819 C1     -8.523480  -16.204436    2.383657 C    1086 MOH     0.1166 ****
6820 HC2    -8.935708  -16.879271    1.633417 H    1086 MOH     0.0372 ****
6821 HC3    -9.345627  -15.918254    3.040559 H    1086 MOH     0.0372 ****
6822 O1     -7.618195  -16.907031    3.179152 O    1086 MOH    -0.6497 ****
6823 HO1    -8.144738  -17.624732    3.539777 H    1086 MOH     0.4215 ****
6824 HC1     5.500358   -9.760645   -0.310420 H    1087 MOH     0.0372 ****
6825 C1      4.834673   -8.901691   -0.225567 C    1087 MOH     0.1166 ****
6826 HC2     3.792556   -9.221757   -0.232638 H    1087 MOH     0.0372 ****
6827 HC3     4.969773   -8.277071   -1.108036 H    1087 MOH     0.0372 ****
6828 O1      5.060417   -8.104790    0.977929 O    1087 MOH    -0.6497 ****
6829 HO1     4.987671   -8.671847    1.747968 H    1087 MOH     0.4215 ****
6830 HC1     5.574836  -20.414701    8.639431 H    1088 MOH     0.0372 ****
6831 C1      5.874481  -21.461858    8.624582 C    1088 MOH     0.1166 ****
6832 HC2     6.508412  -21.650468    7.757669 H    1088 MOH     0.0372 ****
6833 HC3     5.006724  -22.115871    8.545386 H    1088 MOH     0.0372 ****
6834 O1      6.579426  -21.772943    9.818178 O    1088 MOH    -0.6497 ****
6835 HO1     7.013593  -22.621283    9.699384 H    1088 MOH     0.4215 ****
6836 HC1    -2.176091  -17.147081   -5.407953 H    1089 MOH     0.0372 ****
6837 C1     -2.716491  -16.277513   -5.781305 C    1089 MOH     0.1166 ****
6838 HC2    -3.159896  -16.606969   -6.721050 H    1089 MOH     0.0372 ****
6839 HC3    -1.993648  -15.474488   -5.927676 H    1089 MOH     0.0372 ****
6840 O1     -3.707801  -15.939075   -4.787820 O    1089 MOH    -0.6497 ****
6841 HO1    -4.343464  -16.653101   -4.705088 H    1089 MOH     0.4215 ****
6842 HC1    -3.732627  -23.919104   -9.717061 H    1090 MOH     0.0372 ****
6843 C1     -3.319822  -22.911547   -9.753831 C    1090 MOH     0.1166 ****
6844 HC2    -3.405270  -22.440837   -8.774488 H    1090 MOH     0.0372 ****
6845 HC3    -3.896595  -22.323670  -10.468009 H    1090 MOH     0.0372 ****
6846 O1     -1.980369  -22.967069  -10.185166 O    1090 MOH    -0.6497 ****
6847 HO1    -1.946883  -23.627615  -10.880959 H    1090 MOH     0.4215 ****
6848 HC1    12.380641  -25.762345   -3.768172 H    1091 MOH     0.0372 ****
6849 C1     11.700523  -26.331035   -3.133897 C    1091 MOH     0.1166 ****
6850 HC2    12.055016  -26.293884   -2.103642 H    1091 MOH     0.0372 ****
6851 HC3    11.645675  -27.367577   -3.465530 H    1091 MOH     0.0372 ****
6852 O1     10.467880  -25.708048   -3.215921 O    1091 MOH    -0.6497 ****
6853 HO1    10.570071  -24.815209   -2.880046 H    1091 MOH     0.4215 ****
6854 HC1     2.440979   -5.506698    2.423255 H    1092 MOH     0.0372 ****
6855 C1      1.986605   -5.208677    1.478560 C    1092 MOH     0.1166 ****
6856 HC2     0.905805   -5.343399    1.526644 H    1092 MOH     0.0372 ****
6857 HC3     2.409225   -5.833297    0.690843 H    1092 MOH     0.0372 ****
6858 O1      2.268351   -3.851251    1.219052 O    1092 MOH    -0.6497 ****
6859 HO1     1.998729   -3.656925    0.318198 H    1092 MOH     0.4215 ****
6860 HC1     3.481942   -2.593030    5.546546 H    1093 MOH     0.0372 ****
6861 C1      3.140150   -3.262557    4.757414 C    1093 MOH     0.1166 ****
6862 HC2     2.641897   -4.138658    5.173193 H    1093 MOH     0.0372 ****
6863 HC3     4.012527   -3.580582    4.186779 H    1093 MOH     0.0372 ****
6864 O1      2.358995   -2.532609    3.835347 O    1093 MOH    -0.6497 ****
6865 HO1     2.386131   -3.019649    3.008739 H    1093 MOH     0.4215 ****
6866 HC1     6.248604  -19.298958    1.215517 H    1094 MOH     0.0372 ****
6867 C1      6.108308  -19.453276    0.146371 C    1094 MOH     0.1166 ****
6868 HC2     5.912009  -18.498791   -0.342947 H    1094 MOH     0.0372 ****
6869 HC3     5.274037  -20.132193   -0.029698 H    1094 MOH     0.0372 ****
6870 O1      7.283793  -20.007677   -0.405172 O    1094 MOH    -0.6497 ****
6871 HO1     7.930426  -20.108514    0.296985 H    1094 MOH     0.4215 ****
6872 HC1     3.704799  -19.505124   -6.153243 H    1095 MOH     0.0372 ****
6873 C1      3.543718  -20.517988   -5.784840 C    1095 MOH     0.1166 ****
6874 HC2     2.792586  -20.473080   -4.997123 H    1095 MOH     0.0372 ****
6875 HC3     4.468633  -20.918479   -5.369769 H    1095 MOH     0.0372 ****
6876 O1      3.092230  -21.364695   -6.841258 O    1095 MOH    -0.6497 ****
6877 HO1     3.496953  -22.222832   -6.691351 H    1095 MOH     0.4215 ****
6878 HC1    12.710308  -25.387981    1.460883 H    1096 MOH     0.0372 ****
6879 C1     12.544032  -25.301024    2.534978 C    1096 MOH     0.1166 ****
6880 HC2    12.616200  -24.244886    2.794486 H    1096 MOH     0.0372 ****
6881 HC3    13.330960  -25.855017    3.047631 H    1096 MOH     0.0372 ****
6882 O1     11.218435  -25.819908    2.769030 O    1096 MOH    -0.6497 ****
6883 HO1    10.907244  -25.471264    3.607659 H    1096 MOH     0.4215 ****
6884 HC1    11.576392   -7.990889   10.641957 H    1097 MOH     0.0372 ****
6885 C1     10.865097   -8.816775   10.631351 C    1097 MOH     0.1166 ****
6886 HC2    11.227096   -9.547948    9.907980 H    1097 MOH     0.0372 ****
6887 HC3     9.876096   -8.444453   10.361236 H    1097 MOH     0.0372 ****
6888 O1     10.801588   -9.390364   11.916164 O    1097 MOH    -0.6497 ****
6889 HO1    10.525615   -8.706548   12.530639 H    1097 MOH     0.4215 ****
6890 HC1     7.506073   -6.461182   -6.366082 H    1098 MOH     0.0372 ****
6891 C1      6.925259   -6.079879   -5.526039 C    1098 MOH     0.1166 ****
6892 HC2     7.222594   -5.072730   -5.234004 H    1098 MOH     0.0372 ****
6893 HC3     7.133105   -6.735117   -4.679633 H    1098 MOH     0.0372 ****
6894 O1      5.545969   -6.123561   -5.811003 O    1098 MOH    -0.6497 ****
6895 HO1     5.140669   -6.798396   -5.261581 H    1098 MOH     0.4215 ****
6896 HC1    -3.916225  -16.818033    4.659834 H    1099 MOH     0.0372 ****
6897 C1     -4.307668  -17.587173    3.995153 C    1099 MOH     0.1166 ****
6898 HC2    -3.808260  -17.553288    3.027124 H    1099 MOH     0.0372 ****
6899 HC3    -5.379230  -17.424690    3.870703 H    1099 MOH     0.0372 ****
6900 O1     -4.166795  -18.853967    4.579931 O    1099 MOH    -0.6497 ****
6901 HO1    -4.613086  -18.854376    5.429166 H    1099 MOH     0.4215 ****
6902 HC1    12.303854  -19.249968    0.279307 H    1100 MOH     0.0372 ****
6903 C1     12.287111  -20.257117   -0.138593 C    1100 MOH     0.1166 ****
6904 HC2    12.788828  -20.915621    0.569221 H    1100 MOH     0.0372 ****
6905 HC3    12.838480  -20.285694   -1.079045 H    1100 MOH     0.0372 ****
6906 O1     10.944194  -20.692718   -0.287792 O    1100 MOH    -0.6497 ****
6907 HO1    10.452292  -20.431847    0.494975 H    1100 MOH     0.4215 ****
6908 HC1     6.438552  -15.458975   -0.589020 H    1101 MOH     0.0372 ****
6909 C1      5.375073  -15.258117   -0.720542 C    1101 MOH     0.1166 ****
6910 HC2     4.793104  -16.179125   -0.693672 H    1101 MOH     0.0372 ****
6911 HC3     5.209951  -14.787406   -1.689985 H    1101 MOH     0.0372 ****
6912 O1      4.924740  -14.367727    0.258801 O    1101 MOH    -0.6497 ****
6913 HO1     5.035014  -13.473255   -0.071418 H    1101 MOH     0.4215 ****
6914 HC1    10.151492  -12.531426   -3.385627 H    1102 MOH     0.0372 ****
6915 C1      9.747347  -12.185640   -4.336686 C    1102 MOH     0.1166 ****
6916 HC2     8.814349  -12.709014   -4.548818 H    1102 MOH     0.0372 ****
6917 HC3    10.468457  -12.330568   -5.140666 H    1102 MOH     0.0372 ****
6918 O1      9.500818  -10.819641   -4.182536 O    1102 MOH    -0.6497 ****
6919 HO1    10.325275  -10.364036   -3.994446 H    1102 MOH     0.4215 ****
6920 HC1     5.918937  -23.787240    1.817972 H    1103 MOH     0.0372 ****
6921 C1      5.733030  -23.201404    0.917825 C    1103 MOH     0.1166 ****
6922 HC2     5.750928  -23.825207    0.024042 H    1103 MOH     0.0372 ****
6923 HC3     6.480699  -22.415934    0.808930 H    1103 MOH     0.0372 ****
6924 O1      4.490573  -22.613118    1.047225 O    1103 MOH    -0.6497 ****
6925 HO1     4.192083  -22.502482    0.141422 H    1103 MOH     0.4215 ****
6926 HC1     7.103660  -20.212210    3.237135 H    1104 MOH     0.0372 ****
6927 C1      7.857679  -20.965836    3.009447 C    1104 MOH     0.1166 ****
6928 HC2     7.371550  -21.855409    2.609931 H    1104 MOH     0.0372 ****
6929 HC3     8.346695  -21.255284    3.939292 H    1104 MOH     0.0372 ****
6930 O1      8.791832  -20.423682    2.064752 O    1104 MOH    -0.6497 ****
6931 HO1     9.008338  -19.525944    2.324260 H    1104 MOH     0.4215 ****
6932 HC1     5.349093  -11.859450   -5.849187 H    1105 MOH     0.0372 ****
6933 C1      5.111802  -12.146040   -4.823882 C    1105 MOH     0.1166 ****
6934 HC2     5.873904  -12.808627   -4.414467 H    1105 MOH     0.0372 ****
6935 HC3     4.158596  -12.674721   -4.842974 H    1105 MOH     0.0372 ****
6936 O1      5.010188  -11.019683   -3.985961 O    1105 MOH    -0.6497 ****
6937 HO1     5.783837  -10.463240   -4.105462 H    1105 MOH     0.4215 ****
6938 HC1     3.040269  -26.841754    0.502753 H    1106 MOH     0.0372 ****
6939 C1      2.633237  -25.841137    0.357796 C    1106 MOH     0.1166 ****
6940 HC2     1.587656  -25.886861    0.052326 H    1106 MOH     0.0372 ****
6941 HC3     3.189803  -25.383491   -0.458912 H    1106 MOH     0.0372 ****
6942 O1      2.787967  -25.017292    1.514623 O    1106 MOH    -0.6497 ****
6943 HO1     3.070868  -24.137109    1.254408 H    1106 MOH     0.4215 ****
6944 HC1     2.446175  -22.436346    2.725190 H    1107 MOH     0.0372 ****
6945 C1      2.534510  -21.450427    3.181274 C    1107 MOH     0.1166 ****
6946 HC2     1.933488  -21.418583    4.089199 H    1107 MOH     0.0372 ****
6947 HC3     2.182326  -20.715171    2.457903 H    1107 MOH     0.0372 ****
6948 O1      3.874540  -21.246711    3.488865 O    1107 MOH    -0.6497 ****
6949 HO1     4.359514  -21.713339    2.805093 H    1107 MOH     0.4215 ****
6950 HC1     4.409744  -27.273680    3.539070 H    1108 MOH     0.0372 ****
6951 C1      5.485924  -27.265515    3.369364 C    1108 MOH     0.1166 ****
6952 HC2     5.906235  -26.405336    3.889088 H    1108 MOH     0.0372 ****
6953 HC3     5.689729  -27.205095    2.300219 H    1108 MOH     0.0372 ****
6954 O1      6.079441  -28.410243    3.869996 O    1108 MOH    -0.6497 ****
6955 HO1     5.617560  -28.671522    4.669026 H    1108 MOH     0.4215 ****
6956 HC1     1.055916  -12.605727   -3.862217 H    1109 MOH     0.0372 ****
6957 C1      0.473370  -13.478562   -3.566647 C    1109 MOH     0.1166 ****
6958 HC2     0.809387  -14.393447   -4.053843 H    1109 MOH     0.0372 ****
6959 HC3    -0.546808  -13.298525   -3.903936 H    1109 MOH     0.0372 ****
6960 O1      0.466441  -13.625532   -2.163747 O    1109 MOH    -0.6497 ****
6961 HO1     0.279957  -12.763720   -1.782616 H    1109 MOH     0.4215 ****
6962 HC1     0.225109  -15.620233    0.408708 H    1110 MOH     0.0372 ****
6963 C1      1.256834  -15.903965    0.202940 C    1110 MOH     0.1166 ****
6964 HC2     1.527611  -16.729852    0.859842 H    1110 MOH     0.0372 ****
6965 HC3     1.905198  -15.053176    0.413658 H    1110 MOH     0.0372 ****
6966 O1      1.394821  -16.223216   -1.158948 O    1110 MOH    -0.6497 ****
6967 HO1     1.098062  -15.430397   -1.611496 H    1110 MOH     0.4215 ****
6968 HC1     5.719174  -16.347731   -5.277845 H    1111 MOH     0.0372 ****
6969 C1      5.733608  -15.640237   -6.107281 C    1111 MOH     0.1166 ****
6970 HC2     4.742875  -15.209127   -6.248702 H    1111 MOH     0.0372 ****
6971 HC3     6.072512  -16.133401   -7.018035 H    1111 MOH     0.0372 ****
6972 O1      6.610603  -14.588589   -5.800397 O    1111 MOH    -0.6497 ****
6973 HO1     6.806902  -14.581649   -4.860652 H    1111 MOH     0.4215 ****
6974 HC1    11.850634  -20.182407    8.051825 H    1112 MOH     0.0372 ****
6975 C1     11.925689  -19.140558    7.742112 C    1112 MOH     0.1166 ****
6976 HC2    12.964342  -18.916021    7.498868 H    1112 MOH     0.0372 ****
6977 HC3    11.563691  -18.539208    8.577205 H    1112 MOH     0.0372 ****
6978 O1     11.037725  -18.982974    6.665896 O    1112 MOH    -0.6497 ****
6979 HO1    11.404919  -19.503490    5.948182 H    1112 MOH     0.4215 ****
6980 HC1     1.575531  -24.095059    8.600540 H    1113 MOH     0.0372 ****
6981 C1      2.567996  -24.074238    8.150113 C    1113 MOH     0.1166 ****
6982 HC2     3.091076  -23.163028    8.440027 H    1113 MOH     0.0372 ****
6983 HC3     2.507952  -24.129760    7.063997 H    1113 MOH     0.0372 ****
6984 O1      3.302963  -25.138950    8.598419 O    1113 MOH    -0.6497 ****
6985 HO1     2.856094  -25.935034    8.302848 H    1113 MOH     0.4215 ****
6986 HC1    -0.484455  -11.865573    1.605840 H    1114 MOH     0.0372 ****
6987 C1     -0.724055  -12.498358    2.460025 C    1114 MOH     0.1166 ****
6988 HC2    -1.769636  -12.373842    2.740746 H    1114 MOH     0.0372 ****
6989 HC3    -0.091856  -12.190947    3.293703 H    1114 MOH     0.0372 ****
6990 O1     -0.422101  -13.848435    2.143948 O    1114 MOH    -0.6497 ****
6991 HO1    -0.884558  -14.121553    1.348453 H    1114 MOH     0.4215 ****
6992 HC1    -3.077912  -19.803961   -7.493918 H    1115 MOH     0.0372 ****
6993 C1     -2.289829  -19.769668   -8.246279 C    1115 MOH     0.1166 ****
6994 HC2    -2.710140  -19.378158   -9.173296 H    1115 MOH     0.0372 ****
6995 HC3    -1.892034  -20.767427   -8.432955 H    1115 MOH     0.0372 ****
6996 O1     -1.283507  -18.869481   -7.896261 O    1115 MOH    -0.6497 ****
6997 HO1    -0.456164  -19.334476   -8.039804 H    1115 MOH     0.4215 ****
6998 HC1     0.125805  -20.424499  -10.212036 H    1116 MOH     0.0372 ****
6999 C1      0.555931  -20.994413   -9.387549 C    1116 MOH     0.1166 ****
7000 HC2     1.331312  -21.638221   -9.802621 H    1116 MOH     0.0372 ****
7001 HC3    -0.189429  -21.643120   -8.927223 H    1116 MOH     0.0372 ****
7002 O1      1.125198  -20.099941   -8.447805 O    1116 MOH    -0.6497 ****
7003 HO1     1.539736  -20.639237   -7.771103 H    1116 MOH     0.4215 ****
7004 HC1    10.473076  -11.709214   -7.926667 H    1117 MOH     0.0372 ****
7005 C1     11.216703  -12.230139   -8.529122 C    1117 MOH     0.1166 ****
7006 HC2    12.132381  -11.640629   -8.577205 H    1117 MOH     0.0372 ****
7007 HC3    10.880686  -12.351389   -9.559376 H    1117 MOH     0.0372 ****
7008 O1     11.555031  -13.458966   -7.945052 O    1117 MOH    -0.6497 ****
7009 HO1    10.851241  -13.730452   -7.351789 H    1117 MOH     0.4215 ****
7010 HC1    11.188991  -17.386315   -3.266833 H    1118 MOH     0.0372 ****
7011 C1     11.149731  -18.455925   -3.471894 C    1118 MOH     0.1166 ****
7012 HC2    10.371463  -18.884178   -2.840448 H    1118 MOH     0.0372 ****
7013 HC3    12.118524  -18.892343   -3.227942 H    1118 MOH     0.0372 ****
7014 O1     10.861056  -18.747823   -4.840146 O    1118 MOH    -0.6497 ****
7015 HO1    11.290604  -19.562278   -5.112382 H    1118 MOH     0.4215 ****
7016 HC1    15.350531  -18.706182   -5.513311 H    1119 MOH     0.0372 ****
7017 C1     14.828029  -17.777009   -5.285623 C    1119 MOH     0.1166 ****
7018 HC2    13.795727  -17.990114   -5.007023 H    1119 MOH     0.0372 ****
7019 HC3    14.868444  -17.130752   -6.161728 H    1119 MOH     0.0372 ****
7020 O1     15.515653  -17.213626   -4.219306 O    1119 MOH    -0.6497 ****
7021 HO1    15.978111  -17.928877   -3.776657 H    1119 MOH     0.4215 ****
7022 HC1     8.750840  -23.492076    4.126675 H    1120 MOH     0.0372 ****
7023 C1      9.001988  -24.012593    5.050864 C    1120 MOH     0.1166 ****
7024 HC2     8.335148  -24.866240    5.171779 H    1120 MOH     0.0372 ****
7025 HC3     8.879012  -23.342657    5.901513 H    1120 MOH     0.0372 ****
7026 O1     10.342018  -24.443295    4.953990 O    1120 MOH    -0.6497 ****
7027 HO1    10.531966  -24.998921    5.712716 H    1120 MOH     0.4215 ****
7028 HC1    10.223661  -16.561653   -5.894442 H    1121 MOH     0.0372 ****
7029 C1      9.286621  -16.305682   -6.387295 C    1121 MOH     0.1166 ****
7030 HC2     8.448309  -16.637588   -5.774234 H    1121 MOH     0.0372 ****
7031 HC3     9.268146  -16.804561   -7.356032 H    1121 MOH     0.0372 ****
7032 O1      9.256022  -14.922128   -6.604377 O    1121 MOH    -0.6497 ****
7033 HO1     8.339767  -14.680854   -6.756405 H    1121 MOH     0.4215 ****
7034 HC1     0.277070  -17.263840    3.347444 H    1122 MOH     0.0372 ****
7035 C1     -0.732715  -16.864574    3.439367 C    1122 MOH     0.1166 ****
7036 HC2    -1.345284  -17.605952    3.952727 H    1122 MOH     0.0372 ****
7037 HC3    -1.133974  -16.672697    2.443761 H    1122 MOH     0.0372 ****
7038 O1     -0.664588  -15.675755    4.201629 O    1122 MOH    -0.6497 ****
7039 HO1    -0.330302  -14.982549    3.627458 H    1122 MOH     0.4215 ****
7040 HC1     6.894082  -21.271614   -7.602105 H    1123 MOH     0.0372 ****
7041 C1      7.199500  -22.251818   -7.969093 C    1123 MOH     0.1166 ****
7042 HC2     8.148664  -22.172210   -8.498716 H    1123 MOH     0.0372 ****
7043 HC3     6.432779  -22.644145   -8.635895 H    1123 MOH     0.0372 ****
7044 O1      7.353075  -23.172418   -6.894998 O    1123 MOH    -0.6497 ****
7045 HO1     8.202358  -23.606386   -7.003185 H    1123 MOH     0.4215 ****
7046 HC1    12.735135  -23.919921   -0.929138 H    1124 MOH     0.0372 ****
7047 C1     13.606356  -23.416550   -1.348452 C    1124 MOH     0.1166 ****
7048 HC2    13.308443  -22.467373   -1.791808 H    1124 MOH     0.0372 ****
7049 HC3    14.045142  -24.028106   -2.137584 H    1124 MOH     0.0372 ****
7050 O1     14.575150  -23.141391   -0.362745 O    1124 MOH    -0.6497 ****
7051 HO1    15.005276  -23.979525   -0.179605 H    1124 MOH     0.4215 ****
7052 HC1    -3.979156  -10.027639    1.771303 H    1125 MOH     0.0372 ****
7053 C1     -3.116595   -9.564686    1.291884 C    1125 MOH     0.1166 ****
7054 HC2    -2.329666   -9.449968    2.037882 H    1125 MOH     0.0372 ****
7055 HC3    -3.433560   -8.572643    0.969443 H    1125 MOH     0.0372 ****
7056 O1     -2.733811  -10.352197    0.132936 O    1125 MOH    -0.6497 ****
7057 HO1    -3.427786  -10.306065   -0.528209 H    1125 MOH     0.4215 ****
7058 HC1     4.179958  -17.596155  -12.677010 H    1126 MOH     0.0372 ****
7059 C1      5.103719  -17.407952  -13.225018 C    1126 MOH     0.1166 ****
7060 HC2     5.694348  -18.322837  -13.187541 H    1126 MOH     0.0372 ****
7061 HC3     5.626221  -16.584515  -12.737821 H    1126 MOH     0.0372 ****
7062 O1      4.830632  -17.055634  -14.579127 O    1126 MOH    -0.6497 ****
7063 HO1     5.612364  -16.633505  -14.942580 H    1126 MOH     0.4215 ****
7064 HC1     8.287805   -8.340349   -2.655893 H    1127 MOH     0.0372 ****
7065 C1      7.272824   -8.723694   -2.759838 C    1127 MOH     0.1166 ****
7066 HC2     6.551713   -7.906381   -2.738624 H    1127 MOH     0.0372 ****
7067 HC3     7.037842   -9.418533   -1.953736 H    1127 MOH     0.0372 ****
7068 O1      7.145229   -9.435679   -3.942120 O    1127 MOH    -0.6497 ****
7069 HO1     7.865762  -10.068873   -3.973940 H    1127 MOH     0.4215 ****
7070 HC1     1.766634  -22.334284   -1.766353 H    1128 MOH     0.0372 ****
7071 C1      2.623422  -22.592297   -2.390021 C    1128 MOH     0.1166 ****
7072 HC2     2.809329  -21.799071   -3.113391 H    1128 MOH     0.0372 ****
7073 HC3     2.377471  -23.496159   -2.947221 H    1128 MOH     0.0372 ****
7074 O1      3.786783  -22.782949   -1.588869 O    1128 MOH    -0.6497 ****
7075 HO1     4.483067  -23.130777   -2.150312 H    1128 MOH     0.4215 ****
7076 HC1     7.821306  -22.674355   -2.583061 H    1129 MOH     0.0372 ****
7077 C1      7.323053  -23.450027   -3.162888 C    1129 MOH     0.1166 ****
7078 HC2     8.049937  -24.195488   -3.485329 H    1129 MOH     0.0372 ****
7079 HC3     6.860596  -22.976051   -4.029094 H    1129 MOH     0.0372 ****
7080 O1      6.347908  -24.080770   -2.365979 O    1129 MOH    -0.6497 ****
7081 HO1     6.819604  -24.449827   -1.616446 H    1129 MOH     0.4215 ****
7082 HC1     7.145807  -10.975592   -6.876613 H    1130 MOH     0.0372 ****
7083 C1      7.738745  -11.314030   -7.725849 C    1130 MOH     0.1166 ****
7084 HC2     8.105940  -12.309747   -7.477654 H    1130 MOH     0.0372 ****
7085 HC3     8.585718  -10.644094   -7.877876 H    1130 MOH     0.0372 ****
7086 O1      6.934496  -11.365061   -8.896110 O    1130 MOH    -0.6497 ****
7087 HO1     7.341528  -12.015400   -9.473817 H    1130 MOH     0.4215 ****
7088 HC1     2.902282  -10.654709   -1.214102 H    1131 MOH     0.0372 ****
7089 C1      3.083570  -11.692884   -0.934795 C    1131 MOH     0.1166 ****
7090 HC2     2.424236  -12.330160   -1.523815 H    1131 MOH     0.0372 ****
7091 HC3     2.858981  -11.847610    0.120915 H    1131 MOH     0.0372 ****
7092 O1      4.413785  -12.088477   -1.175918 O    1131 MOH    -0.6497 ****
7093 HO1     4.593341  -11.980291   -2.112835 H    1131 MOH     0.4215 ****
7094 HC1     6.790736  -16.442853    2.444468 H    1132 MOH     0.0372 ****
7095 C1      7.244533  -15.563486    2.901259 C    1132 MOH     0.1166 ****
7096 HC2     8.081691  -15.246686    2.279005 H    1132 MOH     0.0372 ****
7097 HC3     7.548220  -15.812518    3.918079 H    1132 MOH     0.0372 ****
7098 O1      6.294215  -14.565727    2.865904 O    1132 MOH    -0.6497 ****
7099 HO1     5.966280  -14.510206    1.965050 H    1132 MOH     0.4215 ****
7100 HC1    -1.376461   -4.970260    0.115258 H    1133 MOH     0.0372 ****
7101 C1     -2.284055   -5.033946    0.714885 C    1133 MOH     0.1166 ****
7102 HC2    -2.894892   -5.880653    0.402344 H    1133 MOH     0.0372 ****
7103 HC3    -2.833116   -4.101916    0.582656 H    1133 MOH     0.0372 ****
7104 O1     -1.912242   -5.217250    2.039296 O    1133 MOH    -0.6497 ****
7105 HO1    -1.385121   -6.019866    2.037882 H    1133 MOH     0.4215 ****
7106 HC1    10.413032  -20.383266    4.287189 H    1134 MOH     0.0372 ****
7107 C1     11.235756  -21.074022    4.101927 C    1134 MOH     0.1166 ****
7108 HC2    11.511152  -20.952772    3.054702 H    1134 MOH     0.0372 ****
7109 HC3    10.927451  -22.113830    4.208700 H    1134 MOH     0.0372 ****
7110 O1     12.325793  -20.763345    4.986517 O    1134 MOH    -0.6497 ****
7111 HO1    12.936630  -21.503907    4.999245 H    1134 MOH     0.4215 ****
7112 HC1     6.160270  -19.041762   -4.908028 H    1135 MOH     0.0372 ****
7113 C1      7.087494  -19.218533   -4.364263 C    1135 MOH     0.1166 ****
7114 HC2     7.021676  -20.143216   -3.790799 H    1135 MOH     0.0372 ****
7115 HC3     7.310929  -18.382033   -3.701704 H    1135 MOH     0.0372 ****
7116 O1      8.090929  -19.320595   -5.294815 O    1135 MOH    -0.6497 ****
7117 HO1     8.900951  -18.979708   -4.908028 H    1135 MOH     0.4215 ****
7118 HC1     4.063334  -18.897650  -10.180923 H    1136 MOH     0.0372 ****
7119 C1      4.343348  -19.806003   -9.647058 C    1136 MOH     0.1166 ****
7120 HC2     5.151639  -20.301616  -10.184459 H    1136 MOH     0.0372 ****
7121 HC3     3.512541  -20.511864   -9.623723 H    1136 MOH     0.0372 ****
7122 O1      4.780980  -19.544724   -8.327596 O    1136 MOH    -0.6497 ****
7123 HO1     4.433415  -20.249360   -7.776053 H    1136 MOH     0.4215 ****
7124 HC1    15.247185  -19.425515    3.222286 H    1137 MOH     0.0372 ****
7125 C1     14.415801  -18.742107    3.052580 C    1137 MOH     0.1166 ****
7126 HC2    13.493773  -19.202203    3.409669 H    1137 MOH     0.0372 ****
7127 HC3    14.345364  -18.553905    1.981313 H    1137 MOH     0.0372 ****
7128 O1     14.743736  -17.521445    3.704533 O    1137 MOH    -0.6497 ****
7129 HO1    15.356882  -17.718629    4.416589 H    1137 MOH     0.4215 ****
7130 HC1     7.753756  -17.196071   11.705446 H    1138 MOH     0.0372 ****
7131 C1      6.862327  -16.569410   11.673626 C    1138 MOH     0.1166 ****
7132 HC2     5.973785  -17.200154   11.633321 H    1138 MOH     0.0372 ****
7133 HC3     6.871565  -15.951322   10.775600 H    1138 MOH     0.0372 ****
7134 O1      6.872720  -15.721887   12.795097 O    1138 MOH    -0.6497 ****
7135 HO1     7.628471  -15.141766   12.678425 H    1138 MOH     0.4215 ****
7136 HC1    15.007008  -16.599212   -0.755190 H    1139 MOH     0.0372 ****
7137 C1     13.997222  -16.920095   -1.011162 C    1139 MOH     0.1166 ****
7138 HC2    13.299783  -16.489393   -0.292035 H    1139 MOH     0.0372 ****
7139 HC3    13.915816  -18.006444   -0.976514 H    1139 MOH     0.0372 ****
7140 O1     13.642152  -16.460816   -2.283248 O    1139 MOH    -0.6497 ****
7141 HO1    14.240864  -16.868248   -2.912573 H    1139 MOH     0.4215 ****
7142 HC1     8.497384  -29.385140    1.659580 H    1140 MOH     0.0372 ****
7143 C1      9.078775  -28.627840    2.186374 C    1140 MOH     0.1166 ****
7144 HC2    10.132439  -28.871972    2.049196 H    1140 MOH     0.0372 ****
7145 HC3     8.848990  -28.617225    3.251277 H    1140 MOH     0.0372 ****
7146 O1      8.950603  -27.367577    1.634124 O    1140 MOH    -0.6497 ****
7147 HO1     9.749079  -26.891152    1.875247 H    1140 MOH     0.4215 ****
7148 HC1     3.652837  -18.028081    6.741556 H    1141 MOH     0.0372 ****
7149 C1      3.998093  -18.871114    6.144051 C    1141 MOH     0.1166 ****
7150 HC2     4.738256  -19.403061    6.742970 H    1141 MOH     0.0372 ****
7151 HC3     4.439766  -18.485319    5.225519 H    1141 MOH     0.0372 ****
7152 O1      2.945583  -19.788856    5.810297 O    1141 MOH    -0.6497 ****
7153 HO1     3.224443  -20.302024    5.048743 H    1141 MOH     0.4215 ****
7154 HC1     8.717931  -29.707657   -3.003082 H    1142 MOH     0.0372 ****
7155 C1      8.685022  -28.622533   -3.102077 C    1142 MOH     0.1166 ****
7156 HC2     9.130159  -28.153455   -2.224558 H    1142 MOH     0.0372 ****
7157 HC3     7.647524  -28.296750   -3.177031 H    1142 MOH     0.0372 ****
7158 O1      9.370915  -28.245311   -4.267389 O    1142 MOH    -0.6497 ****
7159 HO1     9.472528  -27.292051   -4.227084 H    1142 MOH     0.4215 ****
7160 HC1    17.151287  -20.890718   -1.820093 H    1143 MOH     0.0372 ****
7161 C1     16.245424  -20.566161   -2.331331 C    1143 MOH     0.1166 ****
7162 HC2    15.359769  -20.958896   -1.832113 H    1143 MOH     0.0372 ****
7163 HC3    16.252930  -20.914397   -3.364414 H    1143 MOH     0.0372 ****
7164 O1     16.152471  -19.174034   -2.317189 O    1143 MOH    -0.6497 ****
7165 HO1    16.422671  -18.888669   -1.441083 H    1143 MOH     0.4215 ****
7166 HC1     9.685570  -16.326911    0.164756 H    1144 MOH     0.0372 ****
7167 C1     10.348946  -17.148714    0.434164 C    1144 MOH     0.1166 ****
7168 HC2    11.365082  -16.762512    0.511946 H    1144 MOH     0.0372 ****
7169 HC3    10.335089  -17.931326   -0.324562 H    1144 MOH     0.0372 ****
7170 O1      9.970781  -17.575742    1.721098 O    1144 MOH    -0.6497 ****
7171 HO1    10.024475  -16.806602    2.292440 H    1144 MOH     0.4215 ****
7172 HC1     4.171875  -17.363861   -4.712867 H    1145 MOH     0.0372 ****
7173 C1      3.541409  -17.677396   -3.881309 C    1145 MOH     0.1166 ****
7174 HC2     2.565110  -17.990114   -4.251833 H    1145 MOH     0.0372 ****
7175 HC3     3.371091  -16.850285   -3.191173 H    1145 MOH     0.0372 ****
7176 O1      4.143585  -18.731493   -3.185516 O    1145 MOH    -0.6497 ****
7177 HO1     3.492911  -19.085853   -2.575990 H    1145 MOH     0.4215 ****
7178 HC1     6.834037  -12.631447   -1.569070 H    1146 MOH     0.0372 ****
7179 C1      7.490485  -12.355879   -0.743876 C    1146 MOH     0.1166 ****
7180 HC2     6.943734  -12.391805    0.199404 H    1146 MOH     0.0372 ****
7181 HC3     7.836895  -11.333217   -0.894490 H    1146 MOH     0.0372 ****
7182 O1      8.609389  -13.227898   -0.678822 O    1146 MOH    -0.6497 ****
7183 HO1     9.214453  -12.901299   -0.008485 H    1146 MOH     0.4215 ****
7184 HC1    -3.827890  -22.699258   -1.516037 H    1147 MOH     0.0372 ****
7185 C1     -3.184144  -21.915013   -1.912724 C    1147 MOH     0.1166 ****
7186 HC2    -3.150081  -21.113622   -1.175211 H    1147 MOH     0.0372 ****
7187 HC3    -3.583093  -21.474922   -2.827720 H    1147 MOH     0.0372 ****
7188 O1     -1.872405  -22.379600   -2.143241 O    1147 MOH    -0.6497 ****
7189 HO1    -1.430154  -21.592497   -2.468510 H    1147 MOH     0.4215 ****
7190 HC1     2.942119  -15.558587    2.662257 H    1148 MOH     0.0372 ****
7191 C1      3.104932  -15.782716    3.716553 C    1148 MOH     0.1166 ****
7192 HC2     3.672467  -16.709439    3.808477 H    1148 MOH     0.0372 ****
7193 HC3     2.121127  -15.900291    4.170516 H    1148 MOH     0.0372 ****
7194 O1      3.797752  -14.706165    4.308402 O    1148 MOH    -0.6497 ****
7195 HO1     4.636065  -14.615534    3.850197 H    1148 MOH     0.4215 ****
7196 HC1     0.877515  -21.624749    7.421793 H    1149 MOH     0.0372 ****
7197 C1      0.484339  -21.189964    8.340325 C    1149 MOH     0.1166 ****
7198 HC2     0.300164  -20.125253    8.198903 H    1149 MOH     0.0372 ****
7199 HC3     1.183510  -21.334076    9.164104 H    1149 MOH     0.0372 ****
7200 O1     -0.680176  -21.850918    8.669129 O    1149 MOH    -0.6497 ****
7201 HO1    -1.104529  -21.401437    9.403813 H    1149 MOH     0.4215 ****
7202 HC1     2.664414  -15.663507   -6.673674 H    1150 MOH     0.0372 ****
7203 C1      2.531046  -16.686169   -7.026520 C    1150 MOH     0.1166 ****
7204 HC2     1.532230  -16.763736   -7.455027 H    1150 MOH     0.0372 ****
7205 HC3     2.604369  -17.403053   -6.209105 H    1150 MOH     0.0372 ****
7206 O1      3.451342  -16.963370   -8.038390 O    1150 MOH    -0.6497 ****
7207 HO1     3.567390  -17.911322   -8.130314 H    1150 MOH     0.4215 ****
7208 HC1     4.851417  -24.938092   -7.715949 H    1151 MOH     0.0372 ****
7209 C1      4.114718  -24.592306   -6.991165 C    1151 MOH     0.1166 ****
7210 HC2     3.843940  -25.400229   -6.310221 H    1151 MOH     0.0372 ****
7211 HC3     3.205968  -24.292651   -7.511595 H    1151 MOH     0.0372 ****
7212 O1      4.554659  -23.510856   -6.197084 O    1151 MOH    -0.6497 ****
7213 HO1     5.502090  -23.579442   -6.061319 H    1151 MOH     0.4215 ****
7214 HC1     5.800003   -8.382807   -7.363810 H    1152 MOH     0.0372 ****
7215 C1      4.952453   -9.047435   -7.194104 C    1152 MOH     0.1166 ****
7216 HC2     4.087005   -8.403628   -7.037834 H    1152 MOH     0.0372 ****
7217 HC3     5.185125   -9.649193   -6.315878 H    1152 MOH     0.0372 ****
7218 O1      4.819085   -9.749214   -8.409621 O    1152 MOH    -0.6497 ****
7219 HO1     5.664903  -10.155013   -8.614682 H    1152 MOH     0.4215 ****
7220 HC1     3.688633  -27.188765   -1.953736 H    1153 MOH     0.0372 ****
7221 C1      4.723822  -26.884620   -2.110006 C    1153 MOH     0.1166 ****
7222 HC2     5.312719  -27.787257   -2.277591 H    1153 MOH     0.0372 ****
7223 HC3     5.096790  -26.327769   -1.251579 H    1153 MOH     0.0372 ****
7224 O1      4.721513  -26.153039   -3.286632 O    1153 MOH    -0.6497 ****
7225 HO1     5.358907  -25.443911   -3.177031 H    1153 MOH     0.4215 ****
7226 HC1    16.751183  -21.996663    2.617003 H    1154 MOH     0.0372 ****
7227 C1     17.135121  -21.399804    1.789688 C    1154 MOH     0.1166 ****
7228 HC2    17.822745  -22.017075    1.211274 H    1154 MOH     0.0372 ****
7229 HC3    17.636261  -20.537992    2.231629 H    1154 MOH     0.0372 ****
7230 O1     16.069910  -20.960120    1.002678 O    1154 MOH    -0.6497 ****
7231 HO1    15.540479  -21.716196    0.741048 H    1154 MOH     0.4215 ****
7232 HC1    -4.833634  -13.692893   -1.265014 H    1155 MOH     0.0372 ****
7233 C1     -4.999911  -12.622466   -1.146220 C    1155 MOH     0.1166 ****
7234 HC2    -4.646573  -12.301582   -0.166170 H    1155 MOH     0.0372 ****
7235 HC3    -6.066854  -12.409360   -1.218345 H    1155 MOH     0.0372 ****
7236 O1     -4.312864  -11.908031   -2.155969 O    1155 MOH    -0.6497 ****
7237 HO1    -4.403508  -12.437937   -2.950757 H    1155 MOH     0.4215 ****
7238 HC1     1.829565   -7.376883   -4.113947 H    1156 MOH     0.0372 ****
7239 C1      2.700787   -8.032122   -4.133039 C    1156 MOH     0.1166 ****
7240 HC2     2.700210   -8.603669   -5.060763 H    1156 MOH     0.0372 ****
7241 HC3     2.673074   -8.741249   -3.305017 H    1156 MOH     0.0372 ****
7242 O1      3.879159   -7.247469   -4.059500 O    1156 MOH    -0.6497 ****
7243 HO1     3.849714   -6.736750   -3.247034 H    1156 MOH     0.4215 ****
7244 HC1    16.643218  -16.540016    1.352696 H    1157 MOH     0.0372 ****
7245 C1     17.283500  -17.415301    1.461590 C    1157 MOH     0.1166 ****
7246 HC2    17.133389  -17.816200    2.464267 H    1157 MOH     0.0372 ****
7247 HC3    18.322153  -17.102582    1.355524 H    1157 MOH     0.0372 ****
7248 O1     16.904181  -18.357129    0.458205 O    1157 MOH    -0.6497 ****
7249 HO1    16.833167  -19.230372    0.850650 H    1157 MOH     0.4215 ****
7250 HC1    -2.355647  -14.141966   -1.588869 H    1158 MOH     0.0372 ****
7251 C1     -2.088334  -15.146665   -1.260064 C    1158 MOH     0.1166 ****
7252 HC2    -1.143789  -15.436113   -1.720391 H    1158 MOH     0.0372 ****
7253 HC3    -2.851013  -15.860283   -1.569777 H    1158 MOH     0.0372 ****
7254 O1     -1.920902  -15.138908    0.168999 O    1158 MOH    -0.6497 ****
7255 HO1    -2.749400  -14.951114    0.615890 H    1158 MOH     0.4215 ****
7256 HC1    15.578007  -13.005403   -4.158495 H    1159 MOH     0.0372 ****
7257 C1     15.131138  -12.591439   -5.062177 C    1159 MOH     0.1166 ****
7258 HC2    14.103455  -12.272597   -4.890350 H    1159 MOH     0.0372 ****
7259 HC3    15.161738  -13.363845   -5.831509 H    1159 MOH     0.0372 ****
7260 O1     15.941738  -11.527135   -5.450379 O    1159 MOH    -0.6497 ****
7261 HO1    16.123603  -10.980899   -4.682461 H    1159 MOH     0.4215 ****
7262 HC1     8.803957  -15.257708   -9.564326 H    1160 MOH     0.0372 ****
7263 C1      7.879619  -14.742499   -9.825956 C    1160 MOH     0.1166 ****
7264 HC2     7.166591  -14.789448   -9.002176 H    1160 MOH     0.0372 ****
7265 HC3     7.443719  -15.188714  -10.719032 H    1160 MOH     0.0372 ****
7266 O1      8.117487  -13.393238  -10.105263 O    1160 MOH    -0.6497 ****
7267 HO1     8.622091  -13.363028  -10.921264 H    1160 MOH     0.4215 ****
7268 HC1     0.525908   -8.064373    0.487904 H    1161 MOH     0.0372 ****
7269 C1      0.155249   -8.461191    1.432598 C    1161 MOH     0.1166 ****
7270 HC2     1.009728   -8.584073    2.097986 H    1161 MOH     0.0372 ****
7271 HC3    -0.316446   -9.436904    1.316633 H    1161 MOH     0.0372 ****
7272 O1     -0.699806   -7.525894    1.994748 O    1161 MOH    -0.6497 ****
7273 HO1    -0.515054   -7.524261    2.936615 H    1161 MOH     0.4215 ****
7274 HC1     0.409861  -21.118929   12.639534 H    1162 MOH     0.0372 ****
7275 C1      1.304176  -21.561470   13.079354 C    1162 MOH     0.1166 ****
7276 HC2     1.369994  -21.288352   14.132236 H    1162 MOH     0.0372 ****
7277 HC3     2.194451  -21.191597   12.570237 H    1162 MOH     0.0372 ****
7278 O1      1.252792  -22.974009   12.963389 O    1162 MOH    -0.6497 ****
7279 HO1     2.158077  -23.282237   13.051777 H    1162 MOH     0.4215 ****
7280 HC1    -0.936520  -25.477388   -9.024804 H    1163 MOH     0.0372 ****
7281 C1     -0.422678  -25.168344   -8.114757 C    1163 MOH     0.1166 ****
7282 HC2     0.660431  -25.194472   -8.230723 H    1163 MOH     0.0372 ****
7283 HC3    -0.725787  -25.807661   -7.284614 H    1163 MOH     0.0372 ****
7284 O1     -0.862042  -23.910939   -7.831915 O    1163 MOH    -0.6497 ****
7285 HO1    -1.194018  -23.548823   -8.657108 H    1163 MOH     0.4215 ****
7286 HC1    -0.185965  -12.739225    6.226075 H    1164 MOH     0.0372 ****
7287 C1     -0.252360  -12.999687    7.282493 C    1164 MOH     0.1166 ****
7288 HC2    -0.144395  -14.077871    7.406237 H    1164 MOH     0.0372 ****
7289 HC3    -1.236165  -12.684928    7.631096 H    1164 MOH     0.0372 ****
7290 O1      0.731445  -12.280762    8.005863 O    1164 MOH    -0.6497 ****
7291 HO1     1.554169  -12.389764    7.522909 H    1164 MOH     0.4215 ****
7292 HC1     4.140698  -17.376109   10.441846 H    1165 MOH     0.0372 ****
7293 C1      3.730202  -18.332634   10.764994 C    1165 MOH     0.1166 ****
7294 HC2     4.509048  -19.095242   10.786207 H    1165 MOH     0.0372 ****
7295 HC3     2.945006  -18.611468   10.062837 H    1165 MOH     0.0372 ****
7296 O1      3.134377  -18.188114   12.020815 O    1165 MOH    -0.6497 ****
7297 HO1     3.755028  -17.739041   12.599229 H    1165 MOH     0.4215 ****
7298 HC1     0.523599   -6.650610   -2.587304 H    1166 MOH     0.0372 ****
7299 C1      1.089980   -6.345648   -1.706956 C    1166 MOH     0.1166 ****
7300 HC2     1.475650   -7.239304   -1.215516 H    1166 MOH     0.0372 ****
7301 HC3     0.435842   -5.821866   -1.010456 H    1166 MOH     0.0372 ****
7302 O1      2.184636   -5.531193   -2.112128 O    1166 MOH    -0.6497 ****
7303 HO1     1.833607   -4.655908   -2.288905 H    1166 MOH     0.4215 ****
7304 HC1    -7.559882  -16.055425   -3.190466 H    1167 MOH     0.0372 ****
7305 C1     -7.001007  -15.423049   -2.501037 C    1167 MOH     0.1166 ****
7306 HC2    -6.955974  -14.422432   -2.931665 H    1167 MOH     0.0372 ****
7307 HC3    -5.987757  -15.817417   -2.420426 H    1167 MOH     0.0372 ****
7308 O1     -7.666115  -15.410801   -1.212688 O    1167 MOH    -0.6497 ****
7309 HO1    -7.199038  -16.028889   -0.647003 H    1167 MOH     0.4215 ****
7310 HC1     0.915042  -22.268556   -5.291280 H    1168 MOH     0.0372 ****
7311 C1      0.032851  -21.685169   -5.030357 C    1168 MOH     0.1166 ****
7312 HC2     0.337115  -20.686594   -4.719231 H    1168 MOH     0.0372 ****
7313 HC3    -0.502352  -22.175067   -4.217185 H    1168 MOH     0.0372 ****
7314 O1     -0.788141  -21.630056   -6.197791 O    1168 MOH    -0.6497 ****
7315 HO1    -0.878785  -22.518812   -6.550637 H    1168 MOH     0.4215 ****
7316 HC1     8.451773  -31.261041    0.159806 H    1169 MOH     0.0372 ****
7317 C1      9.289508  -31.032831   -0.499924 C    1169 MOH     0.1166 ****
7318 HC2     9.646888  -30.031397   -0.264458 H    1169 MOH     0.0372 ****
7319 HC3     8.939056  -31.077738   -1.530886 H    1169 MOH     0.0372 ****
7320 O1     10.370308  -31.974659   -0.295570 O    1169 MOH    -0.6497 ****
7321 HO1    11.203424  -31.586415   -0.573463 H    1169 MOH     0.4215 ****
7322 HC1     2.645361  -20.405719   -0.224860 H    1170 MOH     0.0372 ****
7323 C1      2.333592  -19.362237   -0.260215 C    1170 MOH     0.1166 ****
7324 HC2     3.139573  -18.704957    0.067882 H    1170 MOH     0.0372 ****
7325 HC3     1.490661  -19.238946    0.418607 H    1170 MOH     0.0372 ****
7326 O1      1.880372  -19.016042   -1.554221 O    1170 MOH    -0.6497 ****
7327 HO1     1.669062  -18.080337   -1.524522 H    1170 MOH     0.4215 ****
7328 HC1    -1.629340  -21.234872    0.591849 H    1171 MOH     0.0372 ****
7329 C1     -0.858000  -21.527994    1.304612 C    1171 MOH     0.1166 ****
7330 HC2     0.039779  -21.784374    0.741755 H    1171 MOH     0.0372 ****
7331 HC3    -1.188245  -22.416342    1.843428 H    1171 MOH     0.0372 ****
7332 O1     -0.597615  -20.450627    2.213244 O    1171 MOH    -0.6497 ****
7333 HO1    -1.263878  -20.475530    2.904088 H    1171 MOH     0.4215 ****
7334 HC1    -1.758667  -20.624132    6.474977 H    1172 MOH     0.0372 ****
7335 C1     -1.275425  -20.774776    5.509776 C    1172 MOH     0.1166 ****
7336 HC2    -0.819895  -21.764370    5.489977 H    1172 MOH     0.0372 ****
7337 HC3    -0.515054  -20.005636    5.371183 H    1172 MOH     0.0372 ****
7338 O1     -2.306572  -20.725378    4.523362 O    1172 MOH    -0.6497 ****
7339 HO1    -2.819259  -19.924394    4.653470 H    1172 MOH     0.4215 ****
7340 HC1    -6.058771  -19.196488    0.141421 H    1173 MOH     0.0372 ****
7341 C1     -5.471029  -18.280787    0.202940 C    1173 MOH     0.1166 ****
7342 HC2    -5.005107  -18.070131   -0.760140 H    1173 MOH     0.0372 ****
7343 HC3    -4.682368  -18.429389    0.939745 H    1173 MOH     0.0372 ****
7344 O1     -6.252761  -17.156063    0.578413 O    1173 MOH    -0.6497 ****
7345 HO1    -6.652865  -17.320179    1.435427 H    1173 MOH     0.4215 ****
7346 HC1     7.676391  -16.589006   -2.308703 H    1174 MOH     0.0372 ****
7347 C1      8.458124  -15.915805   -2.660136 C    1174 MOH     0.1166 ****
7348 HC2     9.017576  -16.350589   -3.488158 H    1174 MOH     0.0372 ****
7349 HC3     9.143438  -15.710864   -1.838477 H    1174 MOH     0.0372 ****
7350 O1      7.884238  -14.716371   -3.105613 O    1174 MOH    -0.6497 ****
7351 HO1     8.079382  -14.072972   -2.419719 H    1174 MOH     0.4215 ****
7352 HC1    12.576248    6.151893   -2.037175 H    1175 MOH     0.0372 ****
7353 C1     11.539904    6.290698   -1.730290 C    1175 MOH     0.1166 ****
7354 HC2    10.976410    6.654855   -2.588718 H    1175 MOH     0.0372 ****
7355 HC3    11.470045    7.040650   -0.941866 H    1175 MOH     0.0372 ****
7356 O1     11.014515    5.047990   -1.313097 O    1175 MOH    -0.6497 ****
7357 HO1    10.251836    5.200267   -0.750947 H    1175 MOH     0.4215 ****
7358 HC1     7.074677   -4.389077    2.054145 H    1176 MOH     0.0372 ****
7359 C1      6.273892   -4.783037    2.679935 C    1176 MOH     0.1166 ****
7360 HC2     5.708089   -5.513393    2.100814 H    1176 MOH     0.0372 ****
7361 HC3     5.601279   -4.006140    3.041266 H    1176 MOH     0.0372 ****
7362 O1      6.770991   -5.524008    3.724332 O    1176 MOH    -0.6497 ****
7363 HO1     7.315432   -4.927965    4.243348 H    1176 MOH     0.4215 ****
7364 HC1    19.184021   -3.150044    6.560537 H    1177 MOH     0.0372 ****
7365 C1     19.245221   -2.370290    7.318555 C    1177 MOH     0.1166 ****
7366 HC2    19.605487   -2.816097    8.246279 H    1177 MOH     0.0372 ****
7367 HC3    18.252178   -1.944895    7.464219 H    1177 MOH     0.0372 ****
7368 O1     20.116442   -1.347628    6.890756 O    1177 MOH    -0.6497 ****
7369 HO1    21.003252   -1.707703    6.824288 H    1177 MOH     0.4215 ****
7370 HC1    25.442498    1.599109    0.779939 H    1178 MOH     0.0372 ****
7371 C1     25.876088    1.792210    1.760696 C    1178 MOH     0.1166 ****
7372 HC2    26.161877    2.843041    1.811608 H    1178 MOH     0.0372 ****
7373 HC3    26.764053    1.172897    1.887268 H    1178 MOH     0.0372 ****
7374 O1     24.921728    1.477451    2.768323 O    1178 MOH    -0.6497 ****
7375 HO1    25.122646    0.585836    3.061065 H    1178 MOH     0.4215 ****
7376 HC1    18.805280   -9.254581   -6.852572 H    1179 MOH     0.0372 ****
7377 C1     18.618218  -10.240500   -6.427600 C    1179 MOH     0.1166 ****
7378 HC2    18.226197  -10.145787   -5.415023 H    1179 MOH     0.0372 ****
7379 HC3    19.575465  -10.756934   -6.359011 H    1179 MOH     0.0372 ****
7380 O1     17.777019  -11.044341   -7.276836 O    1179 MOH    -0.6497 ****
7381 HO1    17.061105  -11.390536   -6.739434 H    1179 MOH     0.4215 ****
7382 HC1    21.435688   -8.782645   -0.215667 H    1180 MOH     0.0372 ****
7383 C1     20.586983   -8.347861    0.312541 C    1180 MOH     0.1166 ****
7384 HC2    20.450728   -7.320708   -0.025456 H    1180 MOH     0.0372 ****
7385 HC3    20.751528   -8.360108    1.390172 H    1180 MOH     0.0372 ****
7386 O1     19.421313   -9.045966   -0.021213 O    1180 MOH    -0.6497 ****
7387 HO1    19.448448   -9.846541    0.508410 H    1180 MOH     0.4215 ****
7388 HC1    29.512241   -0.012247   -3.835347 H    1181 MOH     0.0372 ****
7389 C1     29.317673    0.729131   -3.060358 C    1181 MOH     0.1166 ****
7390 HC2    28.253617    0.771181   -2.827720 H    1181 MOH     0.0372 ****
7391 HC3    29.619050    1.717501   -3.407547 H    1181 MOH     0.0372 ****
7392 O1     29.987400    0.398859   -1.849084 O    1181 MOH    -0.6497 ****
7393 HO1    29.769739   -0.495613   -1.576848 H    1181 MOH     0.4215 ****
7394 HC1    13.625870    4.700571    2.631852 H    1182 MOH     0.0372 ****
7395 C1     14.229779    5.252114    3.352393 C    1182 MOH     0.1166 ****
7396 HC2    15.041533    4.616880    3.705947 H    1182 MOH     0.0372 ****
7397 HC3    13.581414    5.537888    4.181122 H    1182 MOH     0.0372 ****
7398 O1     14.734383    6.376022    2.696905 O    1182 MOH    -0.6497 ****
7399 HO1    15.547292    6.637709    3.136019 H    1182 MOH     0.4215 ****
7400 HC1    20.330062   -1.706886   -9.829491 H    1183 MOH     0.0372 ****
7401 C1     19.537937   -2.239242   -9.303404 C    1183 MOH     0.1166 ****
7402 HC2    19.565073   -1.981637   -8.244865 H    1183 MOH     0.0372 ****
7403 HC3    19.703637   -3.306811   -9.445532 H    1183 MOH     0.0372 ****
7404 O1     18.309336   -1.823645   -9.859190 O    1183 MOH    -0.6497 ****
7405 HO1    17.614784   -2.182495   -9.301282 H    1183 MOH     0.4215 ****
7406 HC1    21.026346    6.184145  -10.948841 H    1184 MOH     0.0372 ****
7407 C1     21.563859    6.526665  -11.833432 C    1184 MOH     0.1166 ****
7408 HC2    21.235925    5.952668  -12.700345 H    1184 MOH     0.0372 ****
7409 HC3    22.623297    6.342137  -11.655241 H    1184 MOH     0.0372 ****
7410 O1     21.303474    7.907361  -12.102132 O    1184 MOH    -0.6497 ****
7411 HO1    21.562705    8.112302  -13.002986 H    1184 MOH     0.4215 ****
7412 HC1    11.687706   -0.620946    7.016621 H    1185 MOH     0.0372 ****
7413 C1     10.667528   -0.913660    7.264815 C    1185 MOH     0.1166 ****
7414 HC2    10.506447   -0.856097    8.340325 H    1185 MOH     0.0372 ****
7415 HC3    10.459104   -1.935913    6.948031 H    1185 MOH     0.0372 ****
7416 O1      9.781295   -0.021229    6.663774 O    1185 MOH    -0.6497 ****
7417 HO1    10.232783    0.355176    5.904342 H    1185 MOH     0.4215 ****
7418 HC1    15.484938    3.327224   -7.879998 H    1186 MOH     0.0372 ****
7419 C1     15.530549    2.872435   -8.869947 C    1186 MOH     0.1166 ****
7420 HC2    16.447959    2.293539   -8.978842 H    1186 MOH     0.0372 ****
7421 HC3    15.520157    3.650148   -9.632916 H    1186 MOH     0.0372 ****
7422 O1     14.427233    2.035934   -9.087029 O    1186 MOH    -0.6497 ****
7423 HO1    14.686463    1.148402   -8.829642 H    1186 MOH     0.4215 ****
7424 HC1    23.592091   -1.229644   -9.384721 H    1187 MOH     0.0372 ****
7425 C1     23.790699   -0.269036   -8.910252 C    1187 MOH     0.1166 ****
7426 HC2    24.855333   -0.051848   -8.993691 H    1187 MOH     0.0372 ****
7427 HC3    23.561491   -0.304145   -7.845350 H    1187 MOH     0.0372 ****
7428 O1     22.997420    0.726682   -9.561498 O    1187 MOH    -0.6497 ****
7429 HO1    23.044763    1.502762   -8.997934 H    1187 MOH     0.4215 ****
7430 HC1    22.433349   -6.696905   -4.372748 H    1188 MOH     0.0372 ****
7431 C1     22.480692   -5.973489   -3.558161 C    1188 MOH     0.1166 ****
7432 HC2    21.687412   -5.245991   -3.729281 H    1188 MOH     0.0372 ****
7433 HC3    23.441402   -5.459913   -3.604830 H    1188 MOH     0.0372 ****
7434 O1     22.295362   -6.615255   -2.264156 O    1188 MOH    -0.6497 ****
7435 HO1    22.103682   -5.939604   -1.608668 H    1188 MOH     0.4215 ****
7436 HC1    29.191234    2.017563   -0.053740 H    1189 MOH     0.0372 ****
7437 C1     29.273795    2.957351    0.492147 C    1189 MOH     0.1166 ****
7438 HC2    28.447029    3.612997    0.219203 H    1189 MOH     0.0372 ****
7439 HC3    30.231042    3.419488    0.247488 H    1189 MOH     0.0372 ****
7440 O1     29.232803    2.599317    1.833528 O    1189 MOH    -0.6497 ****
7441 HO1    29.456815    3.342329    2.397799 H    1189 MOH     0.4215 ****
7442 HC1    17.098632    6.641791   -0.310420 H    1190 MOH     0.0372 ****
7443 C1     16.432948    7.500746   -0.225567 C    1190 MOH     0.1166 ****
7444 HC2    15.390830    7.180679   -0.232638 H    1190 MOH     0.0372 ****
7445 HC3    16.568047    8.125366   -1.108036 H    1190 MOH     0.0372 ****
7446 O1     16.658691    8.297647    0.977929 O    1190 MOH    -0.6497 ****
7447 HO1    16.585945    7.730590    1.747968 H    1190 MOH     0.4215 ****
7448 HC1    17.173110   -4.012264    8.639431 H    1191 MOH     0.0372 ****
7449 C1     17.472755   -5.059421    8.624582 C    1191 MOH     0.1166 ****
7450 HC2    18.106686   -5.248032    7.757669 H    1191 MOH     0.0372 ****
7451 HC3    16.604998   -5.713435    8.545386 H    1191 MOH     0.0372 ****
7452 O1     18.177700   -5.370506    9.818178 O    1191 MOH    -0.6497 ****
7453 HO1    18.611867   -6.218846    9.699384 H    1191 MOH     0.4215 ****
7454 HC1     7.865647   -7.516668   -9.717061 H    1192 MOH     0.0372 ****
7455 C1      8.278452   -6.509111   -9.753831 C    1192 MOH     0.1166 ****
7456 HC2     8.193005   -6.038401   -8.774488 H    1192 MOH     0.0372 ****
7457 HC3     7.701679   -5.921233  -10.468009 H    1192 MOH     0.0372 ****
7458 O1      9.617905   -6.564633  -10.185166 O    1192 MOH    -0.6497 ****
7459 HO1     9.651391   -7.225178  -10.880959 H    1192 MOH     0.4215 ****
7460 HC1    23.978916   -9.359909   -3.768172 H    1193 MOH     0.0372 ****
7461 C1     23.298797   -9.928598   -3.133897 C    1193 MOH     0.1166 ****
7462 HC2    23.653290   -9.891448   -2.103642 H    1193 MOH     0.0372 ****
7463 HC3    23.243949  -10.965141   -3.465530 H    1193 MOH     0.0372 ****
7464 O1     22.066154   -9.305612   -3.215921 O    1193 MOH    -0.6497 ****
7465 HO1    22.168345   -8.412773   -2.880046 H    1193 MOH     0.4215 ****
7466 HC1    14.039253   10.895739    2.423255 H    1194 MOH     0.0372 ****
7467 C1     13.584879   11.193760    1.478560 C    1194 MOH     0.1166 ****
7468 HC2    12.504079   11.059038    1.526644 H    1194 MOH     0.0372 ****
7469 HC3    14.007499   10.569140    0.690843 H    1194 MOH     0.0372 ****
7470 O1     13.866626   12.551185    1.219052 O    1194 MOH    -0.6497 ****
7471 HO1    13.597003   12.745512    0.318198 H    1194 MOH     0.4215 ****
7472 HC1    15.080216   13.809407    5.546546 H    1195 MOH     0.0372 ****
7473 C1     14.738424   13.139880    4.757414 C    1195 MOH     0.1166 ****
7474 HC2    14.240171   12.263779    5.173193 H    1195 MOH     0.0372 ****
7475 HC3    15.610801   12.821854    4.186779 H    1195 MOH     0.0372 ****
7476 O1     13.957270   13.869827    3.835347 O    1195 MOH    -0.6497 ****
7477 HO1    13.984405   13.382787    3.008739 H    1195 MOH     0.4215 ****
7478 HC1    24.308583   -8.985545    1.460883 H    1196 MOH     0.0372 ****
7479 C1     24.142306   -8.898588    2.534978 C    1196 MOH     0.1166 ****
7480 HC2    24.214474   -7.842450    2.794486 H    1196 MOH     0.0372 ****
7481 HC3    24.929234   -9.452581    3.047631 H    1196 MOH     0.0372 ****
7482 O1     22.816709   -9.417472    2.769030 O    1196 MOH    -0.6497 ****
7483 HO1    22.505518   -9.068828    3.607659 H    1196 MOH     0.4215 ****
7484 HC1    23.174666    8.411548   10.641957 H    1197 MOH     0.0372 ****
7485 C1     22.463371    7.585662   10.631351 C    1197 MOH     0.1166 ****
7486 HC2    22.825370    6.854489    9.907980 H    1197 MOH     0.0372 ****
7487 HC3    21.474370    7.957984   10.361236 H    1197 MOH     0.0372 ****
7488 O1     22.399862    7.012073   11.916164 O    1197 MOH    -0.6497 ****
7489 HO1    22.123889    7.695889   12.530639 H    1197 MOH     0.4215 ****
7490 HC1    19.104347    9.941254   -6.366082 H    1198 MOH     0.0372 ****
7491 C1     18.523533   10.322558   -5.526039 C    1198 MOH     0.1166 ****
7492 HC2    18.820868   11.329707   -5.234004 H    1198 MOH     0.0372 ****
7493 HC3    18.731379    9.667319   -4.679633 H    1198 MOH     0.0372 ****
7494 O1     17.144243   10.278875   -5.811003 O    1198 MOH    -0.6497 ****
7495 HO1    16.738943    9.604041   -5.261581 H    1198 MOH     0.4215 ****
7496 HC1     7.682049   -0.415597    4.659834 H    1199 MOH     0.0372 ****
7497 C1      7.290606   -1.184737    3.995153 C    1199 MOH     0.1166 ****
7498 HC2     7.790014   -1.150852    3.027124 H    1199 MOH     0.0372 ****
7499 HC3     6.219044   -1.022254    3.870703 H    1199 MOH     0.0372 ****
7500 O1      7.431479   -2.451531    4.579931 O    1199 MOH    -0.6497 ****
7501 HO1     6.985188   -2.451939    5.429166 H    1199 MOH     0.4215 ****
7502 HC1    23.902128   -2.847532    0.279307 H    1200 MOH     0.0372 ****
7503 C1     23.885385   -3.854680   -0.138593 C    1200 MOH     0.1166 ****
7504 HC2    24.387102   -4.513185    0.569221 H    1200 MOH     0.0372 ****
7505 HC3    24.436754   -3.883258   -1.079045 H    1200 MOH     0.0372 ****
7506 O1     22.542468   -4.290281   -0.287792 O    1200 MOH    -0.6497 ****
7507 HO1    22.050566   -4.029411    0.494975 H    1200 MOH     0.4215 ****
7508 HC1    18.701934   -3.809773    3.237135 H    1201 MOH     0.0372 ****
7509 C1     19.455953   -4.563399    3.009447 C    1201 MOH     0.1166 ****
7510 HC2    18.969825   -5.452972    2.609931 H    1201 MOH     0.0372 ****
7511 HC3    19.944969   -4.852847    3.939292 H    1201 MOH     0.0372 ****
7512 O1     20.390106   -4.021246    2.064752 O    1201 MOH    -0.6497 ****
7513 HO1    20.606613   -3.123508    2.324260 H    1201 MOH     0.4215 ****
7514 HC1    16.947367    4.542987   -5.849187 H    1202 MOH     0.0372 ****
7515 C1     16.710076    4.256397   -4.823882 C    1202 MOH     0.1166 ****
7516 HC2    17.472178    3.593810   -4.414467 H    1202 MOH     0.0372 ****
7517 HC3    15.756870    3.727715   -4.842974 H    1202 MOH     0.0372 ****
7518 O1     16.608462    5.382754   -3.985961 O    1202 MOH    -0.6497 ****
7519 HO1    17.382111    5.939196   -4.105462 H    1202 MOH     0.4215 ****
7520 HC1    23.989308    5.758342   -5.052278 H    1203 MOH     0.0372 ****
7521 C1     24.409619    6.641791   -4.571445 C    1203 MOH     0.1166 ****
7522 HC2    24.663076    7.383579   -5.328757 H    1203 MOH     0.0372 ****
7523 HC3    25.296429    6.358875   -4.005053 H    1203 MOH     0.0372 ****
7524 O1     23.404452    7.138221   -3.748373 O    1203 MOH    -0.6497 ****
7525 HO1    23.760677    7.334589   -2.879339 H    1203 MOH     0.4215 ****
7526 HC1    18.340513    8.066170    7.523616 H    1204 MOH     0.0372 ****
7527 C1     18.297789    8.940229    6.873785 C    1204 MOH     0.1166 ****
7528 HC2    19.098574    9.640375    7.112080 H    1204 MOH     0.0372 ****
7529 HC3    17.358440    9.456255    7.068947 H    1204 MOH     0.0372 ****
7530 O1     18.298366    8.585870    5.482199 O    1204 MOH    -0.6497 ****
7531 HO1    18.407485    9.378280    4.951162 H    1204 MOH     0.4215 ****
7532 HC1    11.823383    0.782204    0.408708 H    1205 MOH     0.0372 ****
7533 C1     12.855108    0.498471    0.202940 C    1205 MOH     0.1166 ****
7534 HC2    13.125885   -0.327415    0.859842 H    1205 MOH     0.0372 ****
7535 HC3    13.503472    1.349261    0.413658 H    1205 MOH     0.0372 ****
7536 O1     12.993095    0.179221   -1.158948 O    1205 MOH    -0.6497 ****
7537 HO1    12.696337    0.972039   -1.611496 H    1205 MOH     0.4215 ****
7538 HC1    17.317448    0.054705   -5.277845 H    1206 MOH     0.0372 ****
7539 C1     17.331882    0.762200   -6.107281 C    1206 MOH     0.1166 ****
7540 HC2    16.341149    1.193310   -6.248702 H    1206 MOH     0.0372 ****
7541 HC3    17.670787    0.269036   -7.018035 H    1206 MOH     0.0372 ****
7542 O1     18.208877    1.813847   -5.800397 O    1206 MOH    -0.6497 ****
7543 HO1    18.405176    1.820787   -4.860652 H    1206 MOH     0.4215 ****
7544 HC1    23.448908   -3.779971    8.051825 H    1207 MOH     0.0372 ****
7545 C1     23.523963   -2.738121    7.742112 C    1207 MOH     0.1166 ****
7546 HC2    24.562617   -2.513585    7.498868 H    1207 MOH     0.0372 ****
7547 HC3    23.161965   -2.136771    8.577205 H    1207 MOH     0.0372 ****
7548 O1     22.635999   -2.580537    6.665896 O    1207 MOH    -0.6497 ****
7549 HO1    23.003194   -3.101054    5.948182 H    1207 MOH     0.4215 ****
7550 HC1    11.113819    4.536863    1.605840 H    1208 MOH     0.0372 ****
7551 C1     10.874219    3.904078    2.460025 C    1208 MOH     0.1166 ****
7552 HC2     9.828638    4.028594    2.740746 H    1208 MOH     0.0372 ****
7553 HC3    11.506418    4.211489    3.293703 H    1208 MOH     0.0372 ****
7554 O1     11.176173    2.554001    2.143948 O    1208 MOH    -0.6497 ****
7555 HO1    10.713716    2.280883    1.348453 H    1208 MOH     0.4215 ****
7556 HC1    22.071350    4.693222   -7.926667 H    1209 MOH     0.0372 ****
7557 C1     22.814977    4.172297   -8.529122 C    1209 MOH     0.1166 ****
7558 HC2    23.730655    4.761808   -8.577205 H    1209 MOH     0.0372 ****
7559 HC3    22.478960    4.051048   -9.559376 H    1209 MOH     0.0372 ****
7560 O1     23.153305    2.943470   -7.945052 O    1209 MOH    -0.6497 ****
7561 HO1    22.449515    2.671985   -7.351789 H    1209 MOH     0.4215 ****
7562 HC1    22.787265   -0.983878   -3.266833 H    1210 MOH     0.0372 ****
7563 C1     22.748005   -2.053489   -3.471894 C    1210 MOH     0.1166 ****
7564 HC2    21.969737   -2.481741   -2.840448 H    1210 MOH     0.0372 ****
7565 HC3    23.716799   -2.489906   -3.227942 H    1210 MOH     0.0372 ****
7566 O1     22.459330   -2.345386   -4.840146 O    1210 MOH    -0.6497 ****
7567 HO1    22.888878   -3.159842   -5.112382 H    1210 MOH     0.4215 ****
7568 HC1    26.948805   -2.303745   -5.513311 H    1211 MOH     0.0372 ****
7569 C1     26.426303   -1.374572   -5.285623 C    1211 MOH     0.1166 ****
7570 HC2    25.394001   -1.587678   -5.007023 H    1211 MOH     0.0372 ****
7571 HC3    26.466718   -0.728315   -6.161728 H    1211 MOH     0.0372 ****
7572 O1     27.113928   -0.811189   -4.219306 O    1211 MOH    -0.6497 ****
7573 HO1    27.576385   -1.526440   -3.776657 H    1211 MOH     0.4215 ****
7574 HC1    21.821935   -0.159217   -5.894442 H    1212 MOH     0.0372 ****
7575 C1     20.884895    0.096755   -6.387295 C    1212 MOH     0.1166 ****
7576 HC2    20.046583   -0.235151   -5.774234 H    1212 MOH     0.0372 ****
7577 HC3    20.866420   -0.402125   -7.356032 H    1212 MOH     0.0372 ****
7578 O1     20.854296    1.480308   -6.604377 O    1212 MOH    -0.6497 ****
7579 HO1    19.938041    1.721583   -6.756405 H    1212 MOH     0.4215 ****
7580 HC1    11.875344   -0.861404    3.347444 H    1213 MOH     0.0372 ****
7581 C1     10.865559   -0.462137    3.439367 C    1213 MOH     0.1166 ****
7582 HC2    10.252990   -1.203516    3.952727 H    1213 MOH     0.0372 ****
7583 HC3    10.464300   -0.270260    2.443761 H    1213 MOH     0.0372 ****
7584 O1     10.933686    0.726682    4.201629 O    1213 MOH    -0.6497 ****
7585 HO1    11.267972    1.419888    3.627458 H    1213 MOH     0.4215 ****
7586 HC1    18.492356   -4.869177   -7.602105 H    1214 MOH     0.0372 ****
7587 C1     18.797774   -5.849382   -7.969093 C    1214 MOH     0.1166 ****
7588 HC2    19.746938   -5.769773   -8.498716 H    1214 MOH     0.0372 ****
7589 HC3    18.031053   -6.241708   -8.635895 H    1214 MOH     0.0372 ****
7590 O1     18.951349   -6.769981   -6.894998 O    1214 MOH    -0.6497 ****
7591 HO1    19.800632   -7.203949   -7.003185 H    1214 MOH     0.4215 ****
7592 HC1    24.333409   -7.517484   -0.929138 H    1215 MOH     0.0372 ****
7593 C1     25.204630   -7.014114   -1.348452 C    1215 MOH     0.1166 ****
7594 HC2    24.906717   -6.064937   -1.791808 H    1215 MOH     0.0372 ****
7595 HC3    25.643416   -7.625670   -2.137584 H    1215 MOH     0.0372 ****
7596 O1     26.173424   -6.738955   -0.362745 O    1215 MOH    -0.6497 ****
7597 HO1    26.603550   -7.577088   -0.179605 H    1215 MOH     0.4215 ****
7598 HC1     7.619118    6.374797    1.771303 H    1216 MOH     0.0372 ****
7599 C1      8.481680    6.837751    1.291884 C    1216 MOH     0.1166 ****
7600 HC2     9.268608    6.952468    2.037882 H    1216 MOH     0.0372 ****
7601 HC3     8.164714    7.829794    0.969443 H    1216 MOH     0.0372 ****
7602 O1      8.864463    6.050240    0.132936 O    1216 MOH    -0.6497 ****
7603 HO1     8.170488    6.096372   -0.528209 H    1216 MOH     0.4215 ****
7604 HC1    14.305412    1.812214    8.032026 H    1217 MOH     0.0372 ****
7605 C1     14.913362    2.683008    7.783832 C    1217 MOH     0.1166 ****
7606 HC2    15.962984    2.413564    7.669280 H    1217 MOH     0.0372 ****
7607 HC3    14.856781    3.405199    8.599126 H    1217 MOH     0.0372 ****
7608 O1     14.518454    3.245166    6.573972 O    1217 MOH    -0.6497 ****
7609 HO1    14.800201    2.646674    5.878179 H    1217 MOH     0.4215 ****
7610 HC1    15.778232   -1.193718  -12.677010 H    1218 MOH     0.0372 ****
7611 C1     16.701993   -1.005516  -13.225018 C    1218 MOH     0.1166 ****
7612 HC2    17.292622   -1.920400  -13.187541 H    1218 MOH     0.0372 ****
7613 HC3    17.224495   -0.182079  -12.737821 H    1218 MOH     0.0372 ****
7614 O1     16.428906   -0.653197  -14.579127 O    1218 MOH    -0.6497 ****
7615 HO1    17.210638   -0.231069  -14.942580 H    1218 MOH     0.4215 ****
7616 HC1    19.886079    8.062087   -2.655893 H    1219 MOH     0.0372 ****
7617 C1     18.871098    7.678742   -2.759838 C    1219 MOH     0.1166 ****
7618 HC2    18.149987    8.496055   -2.738624 H    1219 MOH     0.0372 ****
7619 HC3    18.636116    6.983903   -1.953736 H    1219 MOH     0.0372 ****
7620 O1     18.743503    6.966757   -3.942120 O    1219 MOH    -0.6497 ****
7621 HO1    19.464036    6.333564   -3.973940 H    1219 MOH     0.4215 ****
7622 HC1    19.419580   -6.271919   -2.583061 H    1220 MOH     0.0372 ****
7623 C1     18.921327   -7.047590   -3.162888 C    1220 MOH     0.1166 ****
7624 HC2    19.648211   -7.793052   -3.485329 H    1220 MOH     0.0372 ****
7625 HC3    18.458870   -6.573614   -4.029094 H    1220 MOH     0.0372 ****
7626 O1     17.946183   -7.678334   -2.365979 O    1220 MOH    -0.6497 ****
7627 HO1    18.417878   -8.047390   -1.616446 H    1220 MOH     0.4215 ****
7628 HC1    22.760129   -0.220046    4.603972 H    1221 MOH     0.0372 ****
7629 C1     22.137745    0.674426    4.594780 C    1221 MOH     0.1166 ****
7630 HC2    22.581728    1.461529    5.204306 H    1221 MOH     0.0372 ****
7631 HC3    21.166065    0.396409    5.004195 H    1221 MOH     0.0372 ****
7632 O1     21.958190    1.127174    3.273197 O    1221 MOH    -0.6497 ****
7633 HO1    22.815555    1.402741    2.940150 H    1221 MOH     0.4215 ****
7634 HC1    18.744081    5.426844   -6.876613 H    1222 MOH     0.0372 ****
7635 C1     19.337019    5.088407   -7.725849 C    1222 MOH     0.1166 ****
7636 HC2    19.704214    4.092689   -7.477654 H    1222 MOH     0.0372 ****
7637 HC3    20.183992    5.758342   -7.877876 H    1222 MOH     0.0372 ****
7638 O1     18.532771    5.037376   -8.896110 O    1222 MOH    -0.6497 ****
7639 HO1    18.939802    4.387036   -9.473817 H    1222 MOH     0.4215 ****
7640 HC1    14.500556    5.747728   -1.214102 H    1223 MOH     0.0372 ****
7641 C1     14.681844    4.709552   -0.934795 C    1223 MOH     0.1166 ****
7642 HC2    14.022510    4.072277   -1.523815 H    1223 MOH     0.0372 ****
7643 HC3    14.457255    4.554826    0.120915 H    1223 MOH     0.0372 ****
7644 O1     16.012059    4.313960   -1.175918 O    1223 MOH    -0.6497 ****
7645 HO1    16.191615    4.422145   -2.112835 H    1223 MOH     0.4215 ****
7646 HC1    10.221813   11.432177    0.115258 H    1224 MOH     0.0372 ****
7647 C1      9.314219   11.368490    0.714885 C    1224 MOH     0.1166 ****
7648 HC2     8.703382   10.521783    0.402344 H    1224 MOH     0.0372 ****
7649 HC3     8.765159   12.300521    0.582656 H    1224 MOH     0.0372 ****
7650 O1      9.686032   11.185187    2.039296 O    1224 MOH    -0.6497 ****
7651 HO1    10.213153   10.382571    2.037882 H    1224 MOH     0.4215 ****
7652 HC1    25.751958    3.278642    7.821308 H    1225 MOH     0.0372 ****
7653 C1     25.499079    4.143312    8.435077 C    1225 MOH     0.1166 ****
7654 HC2    26.306792    4.326615    9.142891 H    1225 MOH     0.0372 ****
7655 HC3    24.581092    3.910610    8.973892 H    1225 MOH     0.0372 ****
7656 O1     25.306821    5.251706    7.578771 O    1225 MOH    -0.6497 ****
7657 HO1    24.621506    4.980629    6.963588 H    1225 MOH     0.4215 ****
7658 HC1    22.011306   -3.980829    4.287189 H    1226 MOH     0.0372 ****
7659 C1     22.834030   -4.671585    4.101927 C    1226 MOH     0.1166 ****
7660 HC2    23.109426   -4.550335    3.054702 H    1226 MOH     0.0372 ****
7661 HC3    22.525725   -5.711394    4.208700 H    1226 MOH     0.0372 ****
7662 O1     23.924067   -4.360908    4.986517 O    1226 MOH    -0.6497 ****
7663 HO1    24.534904   -5.101471    4.999245 H    1226 MOH     0.4215 ****
7664 HC1    17.758544   -2.639325   -4.908028 H    1227 MOH     0.0372 ****
7665 C1     18.685768   -2.816097   -4.364263 C    1227 MOH     0.1166 ****
7666 HC2    18.619950   -3.740779   -3.790799 H    1227 MOH     0.0372 ****
7667 HC3    18.909203   -1.979596   -3.701704 H    1227 MOH     0.0372 ****
7668 O1     19.689203   -2.918159   -5.294815 O    1227 MOH    -0.6497 ****
7669 HO1    20.499225   -2.577271   -4.908028 H    1227 MOH     0.4215 ****
7670 HC1    26.845460   -3.023079    3.222286 H    1228 MOH     0.0372 ****
7671 C1     26.014075   -2.339671    3.052580 C    1228 MOH     0.1166 ****
7672 HC2    25.092047   -2.799767    3.409669 H    1228 MOH     0.0372 ****
7673 HC3    25.943638   -2.151468    1.981313 H    1228 MOH     0.0372 ****
7674 O1     26.342010   -1.119009    3.704533 O    1228 MOH    -0.6497 ****
7675 HO1    26.955156   -1.316192    4.416589 H    1228 MOH     0.4215 ****
7676 HC1    19.352030   -0.793635   11.705446 H    1229 MOH     0.0372 ****
7677 C1     18.460602   -0.166973   11.673626 C    1229 MOH     0.1166 ****
7678 HC2    17.572059   -0.797717   11.633321 H    1229 MOH     0.0372 ****
7679 HC3    18.469839    0.451114   10.775600 H    1229 MOH     0.0372 ****
7680 O1     18.470994    0.680550   12.795097 O    1229 MOH    -0.6497 ****
7681 HO1    19.226745    1.260671   12.678425 H    1229 MOH     0.4215 ****
7682 HC1    26.605282   -0.196776   -0.755190 H    1230 MOH     0.0372 ****
7683 C1     25.595496   -0.517659   -1.011162 C    1230 MOH     0.1166 ****
7684 HC2    24.898057   -0.086957   -0.292035 H    1230 MOH     0.0372 ****
7685 HC3    25.514090   -1.604008   -0.976514 H    1230 MOH     0.0372 ****
7686 O1     25.240426   -0.058380   -2.283248 O    1230 MOH    -0.6497 ****
7687 HO1    25.839138   -0.465811   -2.912573 H    1230 MOH     0.4215 ****
7688 HC1    21.009026    0.468261   10.291939 H    1231 MOH     0.0372 ****
7689 C1     21.233615    1.534197   10.342144 C    1231 MOH     0.1166 ****
7690 HC2    20.874503    2.082066    9.470988 H    1231 MOH     0.0372 ****
7691 HC3    22.319611    1.580737   10.270019 H    1231 MOH     0.0372 ****
7692 O1     20.872771    2.132281   11.608572 O    1231 MOH    -0.6497 ****
7693 HO1    20.800602    3.081050   11.482707 H    1231 MOH     0.4215 ****
7694 HC1    20.095658  -12.982704    1.659580 H    1232 MOH     0.0372 ****
7695 C1     20.677049  -12.225403    2.186374 C    1232 MOH     0.1166 ****
7696 HC2    21.730714  -12.469536    2.049196 H    1232 MOH     0.0372 ****
7697 HC3    20.447264  -12.214789    3.251277 H    1232 MOH     0.0372 ****
7698 O1     20.548878  -10.965141    1.634124 O    1232 MOH    -0.6497 ****
7699 HO1    21.347353  -10.488715    1.875247 H    1232 MOH     0.4215 ****
7700 HC1    20.316205  -13.305220   -3.003082 H    1233 MOH     0.0372 ****
7701 C1     20.283296  -12.220096   -3.102077 C    1233 MOH     0.1166 ****
7702 HC2    20.728434  -11.751019   -2.224558 H    1233 MOH     0.0372 ****
7703 HC3    19.245798  -11.894314   -3.177031 H    1233 MOH     0.0372 ****
7704 O1     20.969189  -11.842875   -4.267389 O    1233 MOH    -0.6497 ****
7705 HO1    21.070802  -10.889615   -4.227084 H    1233 MOH     0.4215 ****
7706 HC1    28.749561   -4.488282   -1.820093 H    1234 MOH     0.0372 ****
7707 C1     27.843698   -4.163724   -2.331331 C    1234 MOH     0.1166 ****
7708 HC2    26.958043   -4.556459   -1.832113 H    1234 MOH     0.0372 ****
7709 HC3    27.851204   -4.511960   -3.364414 H    1234 MOH     0.0372 ****
7710 O1     27.750745   -2.771598   -2.317189 O    1234 MOH    -0.6497 ****
7711 HO1    28.020945   -2.486232   -1.441083 H    1234 MOH     0.4215 ****
7712 HC1    25.063757    6.274776    4.268097 H    1235 MOH     0.0372 ****
7713 C1     24.724275    5.528907    3.548969 C    1235 MOH     0.1166 ****
7714 HC2    24.217938    4.691589    4.030509 H    1235 MOH     0.0372 ****
7715 HC3    25.611085    5.132089    3.053994 H    1235 MOH     0.0372 ****
7716 O1     23.883075    6.149444    2.594375 O    1235 MOH    -0.6497 ****
7717 HO1    24.412506    6.834485    2.178596 H    1235 MOH     0.4215 ****
7718 HC1    22.208760    8.485849    6.198498 H    1236 MOH     0.0372 ****
7719 C1     21.896990    8.066986    7.155921 C    1236 MOH     0.1166 ****
7720 HC2    21.369870    8.813264    7.748476 H    1236 MOH     0.0372 ****
7721 HC3    22.789574    7.733447    7.684130 H    1236 MOH     0.0372 ****
7722 O1     21.082349    6.952877    6.928940 O    1236 MOH    -0.6497 ****
7723 HO1    20.396457    7.194151    6.303150 H    1236 MOH     0.4215 ****
7724 HC1    14.888536   13.880034   -1.520987 H    1237 MOH     0.0372 ****
7725 C1     13.980941   14.259705   -1.990506 C    1237 MOH     0.1166 ****
7726 HC2    14.111422   14.239700   -3.073086 H    1237 MOH     0.0372 ****
7727 HC3    13.837758   15.290531   -1.668772 H    1237 MOH     0.0372 ****
7728 O1     12.840674   13.466478   -1.616446 O    1237 MOH    -0.6497 ****
7729 HO1    12.067602   13.971481   -1.878783 H    1237 MOH     0.4215 ****
7730 HC1     7.770384   -6.296822   -1.516037 H    1238 MOH     0.0372 ****
7731 C1      8.414130   -5.512577   -1.912724 C    1238 MOH     0.1166 ****
7732 HC2     8.448193   -4.711185   -1.175211 H    1238 MOH     0.0372 ****
7733 HC3     8.015181   -5.072485   -2.827720 H    1238 MOH     0.0372 ****
7734 O1      9.725869   -5.977163   -2.143241 O    1238 MOH    -0.6497 ****
7735 HO1    10.168120   -5.190061   -2.468510 H    1238 MOH     0.4215 ****
7736 HC1    17.046093    5.410106    4.990760 H    1239 MOH     0.0372 ****
7737 C1     17.628063    5.652606    4.101219 C    1239 MOH     0.1166 ****
7738 HC2    17.591689    4.830802    3.386335 H    1239 MOH     0.0372 ****
7739 HC3    18.655169    5.795901    4.438509 H    1239 MOH     0.0372 ****
7740 O1     17.162141    6.896947    3.569475 O    1239 MOH    -0.6497 ****
7741 HO1    17.577833    7.574231    4.107583 H    1239 MOH     0.4215 ****
7742 HC1    12.475789   -5.222312    7.421793 H    1240 MOH     0.0372 ****
7743 C1     12.082613   -4.787528    8.340325 C    1240 MOH     0.1166 ****
7744 HC2    11.898438   -3.722816    8.198903 H    1240 MOH     0.0372 ****
7745 HC3    12.781784   -4.931639    9.164104 H    1240 MOH     0.0372 ****
7746 O1     10.918098   -5.448482    8.669129 O    1240 MOH    -0.6497 ****
7747 HO1    10.493745   -4.999000    9.403813 H    1240 MOH     0.4215 ****
7748 HC1    16.449691   -8.535655   -7.715949 H    1241 MOH     0.0372 ****
7749 C1     15.712992   -8.189869   -6.991165 C    1241 MOH     0.1166 ****
7750 HC2    15.442215   -8.997792   -6.310221 H    1241 MOH     0.0372 ****
7751 HC3    14.804242   -7.890215   -7.511595 H    1241 MOH     0.0372 ****
7752 O1     16.152933   -7.108419   -6.197084 O    1241 MOH    -0.6497 ****
7753 HO1    17.100364   -7.177005   -6.061319 H    1241 MOH     0.4215 ****
7754 HC1    17.398277    8.019629   -7.363810 H    1242 MOH     0.0372 ****
7755 C1     16.550727    7.355001   -7.194104 C    1242 MOH     0.1166 ****
7756 HC2    15.685279    7.998809   -7.037834 H    1242 MOH     0.0372 ****
7757 HC3    16.783399    6.753243   -6.315878 H    1242 MOH     0.0372 ****
7758 O1     16.417359    6.653222   -8.409621 O    1242 MOH    -0.6497 ****
7759 HO1    17.263177    6.247424   -8.614682 H    1242 MOH     0.4215 ****
7760 HC1    28.349457   -5.594226    2.617003 H    1243 MOH     0.0372 ****
7761 C1     28.733395   -4.997367    1.789688 C    1243 MOH     0.1166 ****
7762 HC2    29.421019   -5.614639    1.211274 H    1243 MOH     0.0372 ****
7763 HC3    29.234535   -4.135555    2.231629 H    1243 MOH     0.0372 ****
7764 O1     27.668184   -4.557684    1.002678 O    1243 MOH    -0.6497 ****
7765 HO1    27.138754   -5.313760    0.741048 H    1243 MOH     0.4215 ****
7766 HC1    13.427839    9.025553   -4.113947 H    1244 MOH     0.0372 ****
7767 C1     14.299061    8.370315   -4.133039 C    1244 MOH     0.1166 ****
7768 HC2    14.298484    7.798767   -5.060763 H    1244 MOH     0.0372 ****
7769 HC3    14.271348    7.661187   -3.305017 H    1244 MOH     0.0372 ****
7770 O1     15.477433    9.154968   -4.059500 O    1244 MOH    -0.6497 ****
7771 HO1    15.447988    9.665687   -3.247034 H    1244 MOH     0.4215 ****
7772 HC1    28.241493   -0.137580    1.352696 H    1245 MOH     0.0372 ****
7773 C1     28.881774   -1.012864    1.461590 C    1245 MOH     0.1166 ****
7774 HC2    28.731663   -1.413764    2.464267 H    1245 MOH     0.0372 ****
7775 HC3    29.920427   -0.700146    1.355524 H    1245 MOH     0.0372 ****
7776 O1     28.502455   -1.954693    0.458205 O    1245 MOH    -0.6497 ****
7777 HO1    28.431441   -2.827936    0.850650 H    1245 MOH     0.4215 ****
7778 HC1    26.377228    2.075943    5.773527 H    1246 MOH     0.0372 ****
7779 C1     27.235748    2.437651    5.207842 C    1246 MOH     0.1166 ****
7780 HC2    26.887606    2.956942    4.315473 H    1246 MOH     0.0372 ****
7781 HC3    27.865060    1.597067    4.914392 H    1246 MOH     0.0372 ****
7782 O1     27.985149    3.327224    6.003337 O    1246 MOH    -0.6497 ****
7783 HO1    28.152581    2.908769    6.851158 H    1246 MOH     0.4215 ****
7784 HC1    27.176281    3.397034   -4.158495 H    1247 MOH     0.0372 ****
7785 C1     26.729412    3.810998   -5.062177 C    1247 MOH     0.1166 ****
7786 HC2    25.701729    4.129840   -4.890350 H    1247 MOH     0.0372 ****
7787 HC3    26.760012    3.038592   -5.831509 H    1247 MOH     0.0372 ****
7788 O1     27.540012    4.875301   -5.450379 O    1247 MOH    -0.6497 ****
7789 HO1    27.721877    5.421537   -4.682461 H    1247 MOH     0.4215 ****
7790 HC1    20.402231    1.144728   -9.564326 H    1248 MOH     0.0372 ****
7791 C1     19.477893    1.659937   -9.825956 C    1248 MOH     0.1166 ****
7792 HC2    18.764865    1.612989   -9.002176 H    1248 MOH     0.0372 ****
7793 HC3    19.041993    1.213722  -10.719032 H    1248 MOH     0.0372 ****
7794 O1     19.715761    3.009198  -10.105263 O    1248 MOH    -0.6497 ****
7795 HO1    20.220365    3.039408  -10.921264 H    1248 MOH     0.4215 ****
7796 HC1    12.124182    8.338063    0.487904 H    1249 MOH     0.0372 ****
7797 C1     11.753524    7.941246    1.432598 C    1249 MOH     0.1166 ****
7798 HC2    12.608002    7.818363    2.097986 H    1249 MOH     0.0372 ****
7799 HC3    11.281828    6.965532    1.316633 H    1249 MOH     0.0372 ****
7800 O1     10.898468    8.876543    1.994748 O    1249 MOH    -0.6497 ****
7801 HO1    11.083220    8.878176    2.936615 H    1249 MOH     0.4215 ****
7802 HC1    12.008135   -4.716492   12.639534 H    1250 MOH     0.0372 ****
7803 C1     12.902450   -5.159034   13.079354 C    1250 MOH     0.1166 ****
7804 HC2    12.968268   -4.885915   14.132236 H    1250 MOH     0.0372 ****
7805 HC3    13.792725   -4.789161   12.570237 H    1250 MOH     0.0372 ****
7806 O1     12.851066   -6.571573   12.963389 O    1250 MOH    -0.6497 ****
7807 HO1    13.756352   -6.879800   13.051777 H    1250 MOH     0.4215 ****
7808 HC1    10.661754   -9.074951   -9.024804 H    1251 MOH     0.0372 ****
7809 C1     11.175596   -8.765907   -8.114757 C    1251 MOH     0.1166 ****
7810 HC2    12.258705   -8.792035   -8.230723 H    1251 MOH     0.0372 ****
7811 HC3    10.872487   -9.405224   -7.284614 H    1251 MOH     0.0372 ****
7812 O1     10.736232   -7.508503   -7.831915 O    1251 MOH    -0.6497 ****
7813 HO1    10.404256   -7.146386   -8.657108 H    1251 MOH     0.4215 ****
7814 HC1    11.412310    3.663212    6.226075 H    1252 MOH     0.0372 ****
7815 C1     11.345914    3.402750    7.282493 C    1252 MOH     0.1166 ****
7816 HC2    11.453879    2.324566    7.406237 H    1252 MOH     0.0372 ****
7817 HC3    10.362109    3.717509    7.631096 H    1252 MOH     0.0372 ****
7818 O1     12.329719    4.121675    8.005863 O    1252 MOH    -0.6497 ****
7819 HO1    13.152443    4.012672    7.522909 H    1252 MOH     0.4215 ****
7820 HC1    18.958855    6.224154   11.074707 H    1253 MOH     0.0372 ****
7821 C1     19.396486    5.320700   10.649735 C    1253 MOH     0.1166 ****
7822 HC2    19.640128    5.515843    9.606046 H    1253 MOH     0.0372 ****
7823 HC3    18.690964    4.494406   10.743073 H    1253 MOH     0.0372 ****
7824 O1     20.532712    5.023087   11.397147 O    1253 MOH    -0.6497 ****
7825 HO1    21.160291    5.748953   11.349064 H    1253 MOH     0.4215 ****
7826 HC1    15.738972   -0.973672   10.441846 H    1254 MOH     0.0372 ****
7827 C1     15.328476   -1.930198   10.764994 C    1254 MOH     0.1166 ****
7828 HC2    16.107322   -2.692806   10.786207 H    1254 MOH     0.0372 ****
7829 HC3    14.543280   -2.209031   10.062837 H    1254 MOH     0.0372 ****
7830 O1     14.732651   -1.785678   12.020815 O    1254 MOH    -0.6497 ****
7831 HO1    15.353302   -1.336605   12.599229 H    1254 MOH     0.4215 ****
7832 HC1    12.121873    9.751827   -2.587304 H    1255 MOH     0.0372 ****
7833 C1     12.688254   10.056788   -1.706956 C    1255 MOH     0.1166 ****
7834 HC2    13.073924    9.163133   -1.215516 H    1255 MOH     0.0372 ****
7835 HC3    12.034116   10.580571   -1.010456 H    1255 MOH     0.0372 ****
7836 O1     13.782910   10.871244   -2.112128 O    1255 MOH    -0.6497 ****
7837 HO1    13.431881   11.746528   -2.288905 H    1255 MOH     0.4215 ****
7838 HC1    20.050047  -14.858605    0.159806 H    1256 MOH     0.0372 ****
7839 C1     20.887782  -14.630394   -0.499924 C    1256 MOH     0.1166 ****
7840 HC2    21.245162  -13.628961   -0.264458 H    1256 MOH     0.0372 ****
7841 HC3    20.537331  -14.675301   -1.530886 H    1256 MOH     0.0372 ****
7842 O1     21.968582  -15.572223   -0.295570 O    1256 MOH    -0.6497 ****
7843 HO1    22.801698  -15.183979   -0.573463 H    1256 MOH     0.4215 ****
7844 HC1    20.939744    4.010223    7.272593 H    1257 MOH     0.0372 ****
7845 C1     21.865236    4.309877    7.766154 C    1257 MOH     0.1166 ****
7846 HC2    22.309218    3.455822    8.278099 H    1257 MOH     0.0372 ****
7847 HC3    21.619285    5.061871    8.515687 H    1257 MOH     0.0372 ****
7848 O1     22.747427    4.809165    6.740142 O    1257 MOH    -0.6497 ****
7849 HO1    22.556902    5.747319    6.665189 H    1257 MOH     0.4215 ****
7850 HC1     9.839607   -4.221696    6.474977 H    1258 MOH     0.0372 ****
7851 C1     10.322850   -4.372339    5.509776 C    1258 MOH     0.1166 ****
7852 HC2    10.778379   -5.361933    5.489977 H    1258 MOH     0.0372 ****
7853 HC3    11.083220   -3.603199    5.371183 H    1258 MOH     0.0372 ****
7854 O1      9.291702   -4.322941    4.523362 O    1258 MOH    -0.6497 ****
7855 HO1     8.779015   -3.521958    4.653470 H    1258 MOH     0.4215 ****
7856 HC1    19.356649    7.879192    2.620538 H    1259 MOH     0.0372 ****
7857 C1     20.302349    8.222121    3.040559 C    1259 MOH     0.1166 ****
7858 HC2    20.188611    9.196609    3.516442 H    1259 MOH     0.0372 ****
7859 HC3    21.032120    8.335614    2.238700 H    1259 MOH     0.0372 ****
7860 O1     20.744022    7.299888    4.012831 O    1259 MOH    -0.6497 ****
7861 HO1    21.575406    6.911644    3.730696 H    1259 MOH     0.4215 ****
7862 HC1    24.174522   22.554330   -2.037175 H    1260 MOH     0.0372 ****
7863 C1     23.138178   22.693134   -1.730290 C    1260 MOH     0.1166 ****
7864 HC2    22.574684   23.057292   -2.588718 H    1260 MOH     0.0372 ****
7865 HC3    23.068319   23.443087   -0.941866 H    1260 MOH     0.0372 ****
7866 O1     22.612789   21.450427   -1.313097 O    1260 MOH    -0.6497 ****
7867 HO1    21.850110   21.602703   -0.750947 H    1260 MOH     0.4215 ****
7868 HC1    18.672951   12.013359    2.054145 H    1261 MOH     0.0372 ****
7869 C1     17.872166   11.619400    2.679935 C    1261 MOH     0.1166 ****
7870 HC2    17.306363   10.889043    2.100814 H    1261 MOH     0.0372 ****
7871 HC3    17.199553   12.396296    3.041266 H    1261 MOH     0.0372 ****
7872 O1     18.369265   10.878429    3.724332 O    1261 MOH    -0.6497 ****
7873 HO1    18.913706   11.474471    4.243348 H    1261 MOH     0.4215 ****
7874 HC1    30.782296   13.252393    6.560537 H    1262 MOH     0.0372 ****
7875 C1     30.843495   14.032147    7.318555 C    1262 MOH     0.1166 ****
7876 HC2    31.203761   13.586340    8.246279 H    1262 MOH     0.0372 ****
7877 HC3    29.850452   14.457542    7.464219 H    1262 MOH     0.0372 ****
7878 O1     31.714716   15.054809    6.890756 O    1262 MOH    -0.6497 ****
7879 HO1    32.601526   14.694734    6.824288 H    1262 MOH     0.4215 ****
7880 HC1    30.403554    7.147856   -6.852572 H    1263 MOH     0.0372 ****
7881 C1     30.216492    6.161936   -6.427600 C    1263 MOH     0.1166 ****
7882 HC2    29.824472    6.256650   -5.415023 H    1263 MOH     0.0372 ****
7883 HC3    31.173739    5.645502   -6.359011 H    1263 MOH     0.0372 ****
7884 O1     29.375293    5.358095   -7.276836 O    1263 MOH    -0.6497 ****
7885 HO1    28.659379    5.011901   -6.739434 H    1263 MOH     0.4215 ****
7886 HC1    33.033962    7.619791   -0.215667 H    1264 MOH     0.0372 ****
7887 C1     32.185257    8.054575    0.312541 C    1264 MOH     0.1166 ****
7888 HC2    32.049002    9.081728   -0.025456 H    1264 MOH     0.0372 ****
7889 HC3    32.349802    8.042328    1.390172 H    1264 MOH     0.0372 ****
7890 O1     31.019587    7.356471   -0.021213 O    1264 MOH    -0.6497 ****
7891 HO1    31.046722    6.555896    0.508410 H    1264 MOH     0.4215 ****
7892 HC1    25.224145   21.103007    2.631852 H    1265 MOH     0.0372 ****
7893 C1     25.828053   21.654551    3.352393 C    1265 MOH     0.1166 ****
7894 HC2    26.639807   21.019316    3.705947 H    1265 MOH     0.0372 ****
7895 HC3    25.179689   21.940325    4.181122 H    1265 MOH     0.0372 ****
7896 O1     26.332657   22.778458    2.696905 O    1265 MOH    -0.6497 ****
7897 HO1    27.145566   23.040145    3.136019 H    1265 MOH     0.4215 ****
7898 HC1    31.928336   14.695550   -9.829491 H    1266 MOH     0.0372 ****
7899 C1     31.136211   14.163195   -9.303404 C    1266 MOH     0.1166 ****
7900 HC2    31.163347   14.420799   -8.244865 H    1266 MOH     0.0372 ****
7901 HC3    31.301911   13.095625   -9.445532 H    1266 MOH     0.0372 ****
7902 O1     29.907610   14.578791   -9.859190 O    1266 MOH    -0.6497 ****
7903 HO1    29.213058   14.219941   -9.301282 H    1266 MOH     0.4215 ****
7904 HC1    23.285980   15.781491    7.016621 H    1267 MOH     0.0372 ****
7905 C1     22.265802   15.488777    7.264815 C    1267 MOH     0.1166 ****
7906 HC2    22.104721   15.546340    8.340325 H    1267 MOH     0.0372 ****
7907 HC3    22.057378   14.466523    6.948031 H    1267 MOH     0.0372 ****
7908 O1     21.379569   16.381208    6.663774 O    1267 MOH    -0.6497 ****
7909 HO1    21.831057   16.757613    5.904342 H    1267 MOH     0.4215 ****
7910 HC1    27.083213   19.729660   -7.879998 H    1268 MOH     0.0372 ****
7911 C1     27.128823   19.274871   -8.869947 C    1268 MOH     0.1166 ****
7912 HC2    28.046233   18.695975   -8.978842 H    1268 MOH     0.0372 ****
7913 HC3    27.118431   20.052584   -9.632916 H    1268 MOH     0.0372 ****
7914 O1     26.025507   18.438371   -9.087029 O    1268 MOH    -0.6497 ****
7915 HO1    26.284737   17.550839   -8.829642 H    1268 MOH     0.4215 ****
7916 HC1    17.884868   18.568194    3.220871 H    1269 MOH     0.0372 ****
7917 C1     18.925253   18.595546    2.894895 C    1269 MOH     0.1166 ****
7918 HC2    19.509532   17.955821    3.557454 H    1269 MOH     0.0372 ****
7919 HC3    19.266467   19.629231    2.948635 H    1269 MOH     0.0372 ****
7920 O1     18.992226   18.113405    1.571898 O    1269 MOH    -0.6497 ****
7921 HO1    18.397555   17.360595    1.528058 H    1269 MOH     0.4215 ****
7922 HC1    20.765268   13.885994   -0.939038 H    1270 MOH     0.0372 ****
7923 C1     21.679791   14.192180   -1.446740 C    1270 MOH     0.1166 ****
7924 HC2    22.275039   14.846602   -0.809637 H    1270 MOH     0.0372 ****
7925 HC3    21.404395   14.738416   -2.349009 H    1270 MOH     0.0372 ****
7926 O1     22.381849   13.052759   -1.844841 O    1270 MOH    -0.6497 ****
7927 HO1    23.316579   13.251576   -1.755039 H    1270 MOH     0.4215 ****
7928 HC1    17.711086   13.548373   -5.794740 H    1271 MOH     0.0372 ****
7929 C1     17.753809   13.790056   -4.732666 C    1271 MOH     0.1166 ****
7930 HC2    18.790731   13.728002   -4.401740 H    1271 MOH     0.0372 ****
7931 HC3    17.156252   13.088277   -4.150717 H    1271 MOH     0.0372 ****
7932 O1     17.320219   15.083795   -4.463258 O    1271 MOH    -0.6497 ****
7933 HO1    16.550612   15.275263   -5.004195 H    1271 MOH     0.4215 ****
7934 HC1    15.107813   17.485927    1.920502 H    1272 MOH     0.0372 ****
7935 C1     14.673068   16.600437    2.383657 C    1272 MOH     0.1166 ****
7936 HC2    14.260840   15.925603    1.633417 H    1272 MOH     0.0372 ****
7937 HC3    13.850922   16.886619    3.040559 H    1272 MOH     0.0372 ****
7938 O1     15.578354   15.897842    3.179152 O    1272 MOH    -0.6497 ****
7939 HO1    15.051810   15.180141    3.539777 H    1272 MOH     0.4215 ****
7940 HC1    28.696906   23.044228   -0.310420 H    1273 MOH     0.0372 ****
7941 C1     28.031222   23.903182   -0.225567 C    1273 MOH     0.1166 ****
7942 HC2    26.989104   23.583116   -0.232638 H    1273 MOH     0.0372 ****
7943 HC3    28.166322   24.527802   -1.108036 H    1273 MOH     0.0372 ****
7944 O1     28.256966   24.700083    0.977929 O    1273 MOH    -0.6497 ****
7945 HO1    28.184219   24.133026    1.747968 H    1273 MOH     0.4215 ****
7946 HC1    28.771385   12.390172    8.639431 H    1274 MOH     0.0372 ****
7947 C1     29.071029   11.343016    8.624582 C    1274 MOH     0.1166 ****
7948 HC2    29.704960   11.154405    7.757669 H    1274 MOH     0.0372 ****
7949 HC3    28.203272   10.689002    8.545386 H    1274 MOH     0.0372 ****
7950 O1     29.775974   11.031930    9.818178 O    1274 MOH    -0.6497 ****
7951 HO1    30.210141   10.183590    9.699384 H    1274 MOH     0.4215 ****
7952 HC1    21.020457   15.657792   -5.407953 H    1275 MOH     0.0372 ****
7953 C1     20.480057   16.527360   -5.781305 C    1275 MOH     0.1166 ****
7954 HC2    20.036652   16.197904   -6.721050 H    1275 MOH     0.0372 ****
7955 HC3    21.202900   17.330385   -5.927676 H    1275 MOH     0.0372 ****
7956 O1     19.488747   16.865798   -4.787820 O    1275 MOH    -0.6497 ****
7957 HO1    18.853084   16.151772   -4.705088 H    1275 MOH     0.4215 ****
7958 HC1    19.463921    8.885769   -9.717061 H    1276 MOH     0.0372 ****
7959 C1     19.876726    9.893326   -9.753831 C    1276 MOH     0.1166 ****
7960 HC2    19.791279   10.364036   -8.774488 H    1276 MOH     0.0372 ****
7961 HC3    19.299954   10.481203  -10.468009 H    1276 MOH     0.0372 ****
7962 O1     21.216179    9.837804  -10.185166 O    1276 MOH    -0.6497 ****
7963 HO1    21.249665    9.177258  -10.880959 H    1276 MOH     0.4215 ****
7964 HC1    25.637527   27.298175    2.423255 H    1277 MOH     0.0372 ****
7965 C1     25.183153   27.596196    1.478560 C    1277 MOH     0.1166 ****
7966 HC2    24.102353   27.461474    1.526644 H    1277 MOH     0.0372 ****
7967 HC3    25.605773   26.971577    0.690843 H    1277 MOH     0.0372 ****
7968 O1     25.464900   28.953622    1.219052 O    1277 MOH    -0.6497 ****
7969 HO1    25.195277   29.147948    0.318198 H    1277 MOH     0.4215 ****
7970 HC1    29.445152   13.505915    1.215517 H    1278 MOH     0.0372 ****
7971 C1     29.304856   13.351597    0.146371 C    1278 MOH     0.1166 ****
7972 HC2    29.108557   14.306082   -0.342947 H    1278 MOH     0.0372 ****
7973 HC3    28.470585   12.672680   -0.029698 H    1278 MOH     0.0372 ****
7974 O1     30.480341   12.797196   -0.405172 O    1278 MOH    -0.6497 ****
7975 HO1    31.126974   12.696359    0.296985 H    1278 MOH     0.4215 ****
7976 HC1    26.901347   13.299749   -6.153243 H    1279 MOH     0.0372 ****
7977 C1     26.740266   12.286885   -5.784840 C    1279 MOH     0.1166 ****
7978 HC2    25.989134   12.331793   -4.997123 H    1279 MOH     0.0372 ****
7979 HC3    27.665182   11.886394   -5.369769 H    1279 MOH     0.0372 ****
7980 O1     26.288779   11.440178   -6.841258 O    1279 MOH    -0.6497 ****
7981 HO1    26.693501   10.582041   -6.691351 H    1279 MOH     0.4215 ****
7982 HC1    19.280324   15.986840    4.659834 H    1280 MOH     0.0372 ****
7983 C1     18.888880   15.217700    3.995153 C    1280 MOH     0.1166 ****
7984 HC2    19.388288   15.251585    3.027124 H    1280 MOH     0.0372 ****
7985 HC3    17.817318   15.380183    3.870703 H    1280 MOH     0.0372 ****
7986 O1     19.029754   13.950906    4.579931 O    1280 MOH    -0.6497 ****
7987 HO1    18.583462   13.950497    5.429166 H    1280 MOH     0.4215 ****
7988 HC1    29.635101   17.345898   -0.589020 H    1281 MOH     0.0372 ****
7989 C1     28.571621   17.546756   -0.720542 C    1281 MOH     0.1166 ****
7990 HC2    27.989652   16.625748   -0.693672 H    1281 MOH     0.0372 ****
7991 HC3    28.406499   18.017467   -1.689985 H    1281 MOH     0.0372 ****
7992 O1     28.121288   18.437146    0.258801 O    1281 MOH    -0.6497 ****
7993 HO1    28.231562   19.331618   -0.071418 H    1281 MOH     0.4215 ****
7994 HC1    29.115485    9.017633    1.817972 H    1282 MOH     0.0372 ****
7995 C1     28.929579    9.603469    0.917825 C    1282 MOH     0.1166 ****
7996 HC2    28.947476    8.979666    0.024042 H    1282 MOH     0.0372 ****
7997 HC3    29.677247   10.388939    0.808930 H    1282 MOH     0.0372 ****
7998 O1     27.687121   10.191755    1.047225 O    1282 MOH    -0.6497 ****
7999 HO1    27.388631   10.302391    0.141422 H    1282 MOH     0.4215 ****
8000 HC1    30.300208   12.592663    3.237135 H    1283 MOH     0.0372 ****
8001 C1     31.054228   11.839037    3.009447 C    1283 MOH     0.1166 ****
8002 HC2    30.568099   10.949464    2.609931 H    1283 MOH     0.0372 ****
8003 HC3    31.543243   11.549589    3.939292 H    1283 MOH     0.0372 ****
8004 O1     31.988380   12.381191    2.064752 O    1283 MOH    -0.6497 ****
8005 HO1    32.204887   13.278929    2.324260 H    1283 MOH     0.4215 ****
8006 HC1    28.545641   20.945423   -5.849187 H    1284 MOH     0.0372 ****
8007 C1     28.308350   20.658833   -4.823882 C    1284 MOH     0.1166 ****
8008 HC2    29.070452   19.996246   -4.414467 H    1284 MOH     0.0372 ****
8009 HC3    27.355144   20.130152   -4.842974 H    1284 MOH     0.0372 ****
8010 O1     28.206736   21.785190   -3.985961 O    1284 MOH    -0.6497 ****
8011 HO1    28.980385   22.341633   -4.105462 H    1284 MOH     0.4215 ****
8012 HC1    26.236817    5.963119    0.502753 H    1285 MOH     0.0372 ****
8013 C1     25.829785    6.963736    0.357796 C    1285 MOH     0.1166 ****
8014 HC2    24.784204    6.918012    0.052326 H    1285 MOH     0.0372 ****
8015 HC3    26.386351    7.421382   -0.458912 H    1285 MOH     0.0372 ****
8016 O1     25.984515    7.787581    1.514623 O    1285 MOH    -0.6497 ****
8017 HO1    26.267417    8.667764    1.254408 H    1285 MOH     0.4215 ****
8018 HC1    25.642724   10.368527    2.725190 H    1286 MOH     0.0372 ****
8019 C1     25.731058   11.354446    3.181274 C    1286 MOH     0.1166 ****
8020 HC2    25.130036   11.386290    4.089199 H    1286 MOH     0.0372 ****
8021 HC3    25.378874   12.089702    2.457903 H    1286 MOH     0.0372 ****
8022 O1     27.071088   11.558162    3.488865 O    1286 MOH    -0.6497 ****
8023 HO1    27.556062   11.091535    2.805093 H    1286 MOH     0.4215 ****
8024 HC1    27.606292    5.531193    3.539070 H    1287 MOH     0.0372 ****
8025 C1     28.682473    5.539358    3.369364 C    1287 MOH     0.1166 ****
8026 HC2    29.102784    6.399537    3.889088 H    1287 MOH     0.0372 ****
8027 HC3    28.886277    5.599779    2.300219 H    1287 MOH     0.0372 ****
8028 O1     29.275989    4.394630    3.869996 O    1287 MOH    -0.6497 ****
8029 HO1    28.814109    4.133351    4.669026 H    1287 MOH     0.4215 ****
8030 HC1    24.252464   20.199146   -3.862217 H    1288 MOH     0.0372 ****
8031 C1     23.669918   19.326311   -3.566647 C    1288 MOH     0.1166 ****
8032 HC2    24.005936   18.411426   -4.053843 H    1288 MOH     0.0372 ****
8033 HC3    22.649740   19.506348   -3.903936 H    1288 MOH     0.0372 ****
8034 O1     23.662989   19.179341   -2.163747 O    1288 MOH    -0.6497 ****
8035 HO1    23.476505   20.041154   -1.782616 H    1288 MOH     0.4215 ****
8036 HC1    23.421657   17.184640    0.408708 H    1289 MOH     0.0372 ****
8037 C1     24.453382   16.900908    0.202940 C    1289 MOH     0.1166 ****
8038 HC2    24.724159   16.075021    0.859842 H    1289 MOH     0.0372 ****
8039 HC3    25.101746   17.751697    0.413658 H    1289 MOH     0.0372 ****
8040 O1     24.591369   16.581658   -1.158948 O    1289 MOH    -0.6497 ****
8041 HO1    24.294611   17.374476   -1.611496 H    1289 MOH     0.4215 ****
8042 HC1    28.915722   16.457142   -5.277845 H    1290 MOH     0.0372 ****
8043 C1     28.930156   17.164636   -6.107281 C    1290 MOH     0.1166 ****
8044 HC2    27.939423   17.595746   -6.248702 H    1290 MOH     0.0372 ****
8045 HC3    29.269061   16.671472   -7.018035 H    1290 MOH     0.0372 ****
8046 O1     29.807151   18.216284   -5.800397 O    1290 MOH    -0.6497 ****
8047 HO1    30.003450   18.223224   -4.860652 H    1290 MOH     0.4215 ****
8048 HC1    24.772079    8.709814    8.600540 H    1291 MOH     0.0372 ****
8049 C1     25.764544    8.730635    8.150113 C    1291 MOH     0.1166 ****
8050 HC2    26.287624    9.641845    8.440027 H    1291 MOH     0.0372 ****
8051 HC3    25.704500    8.675113    7.063997 H    1291 MOH     0.0372 ****
8052 O1     26.499511    7.665923    8.598419 O    1291 MOH    -0.6497 ****
8053 HO1    26.052642    6.869839    8.302848 H    1291 MOH     0.4215 ****
8054 HC1    22.712094   20.939300    1.605840 H    1292 MOH     0.0372 ****
8055 C1     22.472493   20.306515    2.460025 C    1292 MOH     0.1166 ****
8056 HC2    21.426912   20.431031    2.740746 H    1292 MOH     0.0372 ****
8057 HC3    23.104692   20.613926    3.293703 H    1292 MOH     0.0372 ****
8058 O1     22.774447   18.956438    2.143948 O    1292 MOH    -0.6497 ****
8059 HO1    22.311990   18.683320    1.348453 H    1292 MOH     0.4215 ****
8060 HC1    20.118636   13.000912   -7.493918 H    1293 MOH     0.0372 ****
8061 C1     20.906719   13.035205   -8.246279 C    1293 MOH     0.1166 ****
8062 HC2    20.486408   13.426715   -9.173296 H    1293 MOH     0.0372 ****
8063 HC3    21.304514   12.037446   -8.432955 H    1293 MOH     0.0372 ****
8064 O1     21.913041   13.935392   -7.896261 O    1293 MOH    -0.6497 ****
8065 HO1    22.740384   13.470397   -8.039804 H    1293 MOH     0.4215 ****
8066 HC1    23.322353   12.380374  -10.212036 H    1294 MOH     0.0372 ****
8067 C1     23.752479   11.810460   -9.387549 C    1294 MOH     0.1166 ****
8068 HC2    24.527860   11.166652   -9.802621 H    1294 MOH     0.0372 ****
8069 HC3    23.007120   11.161753   -8.927223 H    1294 MOH     0.0372 ****
8070 O1     24.321746   12.704932   -8.447805 O    1294 MOH    -0.6497 ****
8071 HO1    24.736284   12.165636   -7.771103 H    1294 MOH     0.4215 ****
8072 HC1    33.420209   16.243220   -5.894442 H    1295 MOH     0.0372 ****
8073 C1     32.483170   16.499191   -6.387295 C    1295 MOH     0.1166 ****
8074 HC2    31.644857   16.167285   -5.774234 H    1295 MOH     0.0372 ****
8075 HC3    32.464694   16.000312   -7.356032 H    1295 MOH     0.0372 ****
8076 O1     32.452570   17.882745   -6.604377 O    1295 MOH    -0.6497 ****
8077 HO1    31.536315   18.124020   -6.756405 H    1295 MOH     0.4215 ****
8078 HC1    23.473619   15.541033    3.347444 H    1296 MOH     0.0372 ****
8079 C1     22.463833   15.940299    3.439367 C    1296 MOH     0.1166 ****
8080 HC2    21.851264   15.198921    3.952727 H    1296 MOH     0.0372 ****
8081 HC3    22.062574   16.132176    2.443761 H    1296 MOH     0.0372 ****
8082 O1     22.531960   17.129119    4.201629 O    1296 MOH    -0.6497 ****
8083 HO1    22.866246   17.822324    3.627458 H    1296 MOH     0.4215 ****
8084 HC1    30.090630   11.533259   -7.602105 H    1297 MOH     0.0372 ****
8085 C1     30.396048   10.553055   -7.969093 C    1297 MOH     0.1166 ****
8086 HC2    31.345212   10.632663   -8.498716 H    1297 MOH     0.0372 ****
8087 HC3    29.629327   10.160728   -8.635895 H    1297 MOH     0.0372 ****
8088 O1     30.549624    9.632455   -6.894998 O    1297 MOH    -0.6497 ****
8089 HO1    31.398906    9.198487   -7.003185 H    1297 MOH     0.4215 ****
8090 HC1    19.217392   22.777234    1.771303 H    1298 MOH     0.0372 ****
8091 C1     20.079954   23.240187    1.291884 C    1298 MOH     0.1166 ****
8092 HC2    20.866882   23.354905    2.037882 H    1298 MOH     0.0372 ****
8093 HC3    19.762988   24.232230    0.969443 H    1298 MOH     0.0372 ****
8094 O1     20.462737   22.452676    0.132936 O    1298 MOH    -0.6497 ****
8095 HO1    19.768762   22.498808   -0.528209 H    1298 MOH     0.4215 ****
8096 HC1    25.903686   18.214651    8.032026 H    1299 MOH     0.0372 ****
8097 C1     26.511636   19.085444    7.783832 C    1299 MOH     0.1166 ****
8098 HC2    27.561258   18.816000    7.669280 H    1299 MOH     0.0372 ****
8099 HC3    26.455055   19.807636    8.599126 H    1299 MOH     0.0372 ****
8100 O1     26.116728   19.647602    6.573972 O    1299 MOH    -0.6497 ****
8101 HO1    26.398475   19.049110    5.878179 H    1299 MOH     0.4215 ****
8102 HC1    27.376507   15.208718  -12.677010 H    1300 MOH     0.0372 ****
8103 C1     28.300267   15.396921  -13.225018 C    1300 MOH     0.1166 ****
8104 HC2    28.890896   14.482036  -13.187541 H    1300 MOH     0.0372 ****
8105 HC3    28.822769   16.220358  -12.737821 H    1300 MOH     0.0372 ****
8106 O1     28.027180   15.749239  -14.579127 O    1300 MOH    -0.6497 ****
8107 HO1    28.808913   16.171368  -14.942580 H    1300 MOH     0.4215 ****
8108 HC1    31.484354   24.464524   -2.655893 H    1301 MOH     0.0372 ****
8109 C1     30.469372   24.081179   -2.759838 C    1301 MOH     0.1166 ****
8110 HC2    29.748261   24.898492   -2.738624 H    1301 MOH     0.0372 ****
8111 HC3    30.234390   23.386340   -1.953736 H    1301 MOH     0.0372 ****
8112 O1     30.341777   23.369194   -3.942120 O    1301 MOH    -0.6497 ****
8113 HO1    31.062311   22.736000   -3.973940 H    1301 MOH     0.4215 ****
8114 HC1    24.963182   10.470589   -1.766353 H    1302 MOH     0.0372 ****
8115 C1     25.819970   10.212576   -2.390021 C    1302 MOH     0.1166 ****
8116 HC2    26.005877   11.005802   -3.113391 H    1302 MOH     0.0372 ****
8117 HC3    25.574019    9.308714   -2.947221 H    1302 MOH     0.0372 ****
8118 O1     26.983331   10.021924   -1.588869 O    1302 MOH    -0.6497 ****
8119 HO1    27.679615    9.674096   -2.150312 H    1302 MOH     0.4215 ****
8120 HC1    31.017855   10.130518   -2.583061 H    1303 MOH     0.0372 ****
8121 C1     30.519601    9.354846   -3.162888 C    1303 MOH     0.1166 ****
8122 HC2    31.246485    8.609385   -3.485329 H    1303 MOH     0.0372 ****
8123 HC3    30.057144    9.828823   -4.029094 H    1303 MOH     0.0372 ****
8124 O1     29.544457    8.724103   -2.365979 O    1303 MOH    -0.6497 ****
8125 HO1    30.016152    8.355046   -1.616446 H    1303 MOH     0.4215 ****
8126 HC1    30.342355   21.829281   -6.876613 H    1304 MOH     0.0372 ****
8127 C1     30.935294   21.490843   -7.725849 C    1304 MOH     0.1166 ****
8128 HC2    31.302488   20.495126   -7.477654 H    1304 MOH     0.0372 ****
8129 HC3    31.782266   22.160779   -7.877876 H    1304 MOH     0.0372 ****
8130 O1     30.131045   21.439812   -8.896110 O    1304 MOH    -0.6497 ****
8131 HO1    30.538077   20.789473   -9.473817 H    1304 MOH     0.4215 ****
8132 HC1    26.098830   22.150164   -1.214102 H    1305 MOH     0.0372 ****
8133 C1     26.280118   21.111989   -0.934795 C    1305 MOH     0.1166 ****
8134 HC2    25.620784   20.474713   -1.523815 H    1305 MOH     0.0372 ****
8135 HC3    26.055529   20.957263    0.120915 H    1305 MOH     0.0372 ****
8136 O1     27.610333   20.716396   -1.175918 O    1305 MOH    -0.6497 ****
8137 HO1    27.789889   20.824582   -2.112835 H    1305 MOH     0.4215 ****
8138 HC1    29.987284   16.362020    2.444468 H    1306 MOH     0.0372 ****
8139 C1     30.441082   17.241387    2.901259 C    1306 MOH     0.1166 ****
8140 HC2    31.278239   17.558187    2.279005 H    1306 MOH     0.0372 ****
8141 HC3    30.744768   16.992355    3.918079 H    1306 MOH     0.0372 ****
8142 O1     29.490763   18.239146    2.865904 O    1306 MOH    -0.6497 ****
8143 HO1    29.162828   18.294667    1.965050 H    1306 MOH     0.4215 ****
8144 HC1    21.820087   27.834613    0.115258 H    1307 MOH     0.0372 ****
8145 C1     20.912493   27.770927    0.714885 C    1307 MOH     0.1166 ****
8146 HC2    20.301656   26.924220    0.402344 H    1307 MOH     0.0372 ****
8147 HC3    20.363433   28.702958    0.582656 H    1307 MOH     0.0372 ****
8148 O1     21.284306   27.587623    2.039296 O    1307 MOH    -0.6497 ****
8149 HO1    21.811427   26.785007    2.037882 H    1307 MOH     0.4215 ****
8150 HC1    29.356818   13.763111   -4.908028 H    1308 MOH     0.0372 ****
8151 C1     30.284042   13.586340   -4.364263 C    1308 MOH     0.1166 ****
8152 HC2    30.218224   12.661657   -3.790799 H    1308 MOH     0.0372 ****
8153 HC3    30.507477   14.422841   -3.701704 H    1308 MOH     0.0372 ****
8154 O1     31.287477   13.484278   -5.294815 O    1308 MOH    -0.6497 ****
8155 HO1    32.097500   13.825165   -4.908028 H    1308 MOH     0.4215 ****
8156 HC1    27.259882   13.907223  -10.180923 H    1309 MOH     0.0372 ****
8157 C1     27.539897   12.998870   -9.647058 C    1309 MOH     0.1166 ****
8158 HC2    28.348187   12.503257  -10.184459 H    1309 MOH     0.0372 ****
8159 HC3    26.709090   12.293009   -9.623723 H    1309 MOH     0.0372 ****
8160 O1     27.977528   13.260149   -8.327596 O    1309 MOH    -0.6497 ****
8161 HO1    27.629963   12.555513   -7.776053 H    1309 MOH     0.4215 ****
8162 HC1    30.950304   15.608802   11.705446 H    1310 MOH     0.0372 ****
8163 C1     30.058876   16.235463   11.673626 C    1310 MOH     0.1166 ****
8164 HC2    29.170334   15.604719   11.633321 H    1310 MOH     0.0372 ****
8165 HC3    30.068113   16.853551   10.775600 H    1310 MOH     0.0372 ****
8166 O1     30.069268   17.082987   12.795097 O    1310 MOH    -0.6497 ****
8167 HO1    30.825019   17.663107   12.678425 H    1310 MOH     0.4215 ****
8168 HC1    31.693932    3.419733    1.659580 H    1311 MOH     0.0372 ****
8169 C1     32.275323    4.177033    2.186374 C    1311 MOH     0.1166 ****
8170 HC2    33.328988    3.932901    2.049196 H    1311 MOH     0.0372 ****
8171 HC3    32.045538    4.187648    3.251277 H    1311 MOH     0.0372 ****
8172 O1     32.147152    5.437296    1.634124 O    1311 MOH    -0.6497 ****
8173 HO1    32.945627    5.913721    1.875247 H    1311 MOH     0.4215 ****
8174 HC1    26.849386   14.776792    6.741556 H    1312 MOH     0.0372 ****
8175 C1     27.194641   13.933759    6.144051 C    1312 MOH     0.1166 ****
8176 HC2    27.934804   13.401812    6.742970 H    1312 MOH     0.0372 ****
8177 HC3    27.636314   14.319554    5.225519 H    1312 MOH     0.0372 ****
8178 O1     26.142131   13.016017    5.810297 O    1312 MOH    -0.6497 ****
8179 HO1    26.420992   12.502849    5.048743 H    1312 MOH     0.4215 ****
8180 HC1    31.914480    3.097216   -3.003082 H    1313 MOH     0.0372 ****
8181 C1     31.881571    4.182340   -3.102077 C    1313 MOH     0.1166 ****
8182 HC2    32.326708    4.651418   -2.224558 H    1313 MOH     0.0372 ****
8183 HC3    30.844072    4.508123   -3.177031 H    1313 MOH     0.0372 ****
8184 O1     32.567463    4.559562   -4.267389 O    1313 MOH    -0.6497 ****
8185 HO1    32.669076    5.512822   -4.227084 H    1313 MOH     0.4215 ****
8186 HC1    27.368424   15.441012   -4.712867 H    1314 MOH     0.0372 ****
8187 C1     26.737957   15.127477   -3.881309 C    1314 MOH     0.1166 ****
8188 HC2    25.761658   14.814759   -4.251833 H    1314 MOH     0.0372 ****
8189 HC3    26.567639   15.954588   -3.191173 H    1314 MOH     0.0372 ****
8190 O1     27.340133   14.073380   -3.185516 O    1314 MOH    -0.6497 ****
8191 HO1    26.689460   13.719020   -2.575990 H    1314 MOH     0.4215 ****
8192 HC1    30.030586   20.173426   -1.569070 H    1315 MOH     0.0372 ****
8193 C1     30.687033   20.448994   -0.743876 C    1315 MOH     0.1166 ****
8194 HC2    30.140282   20.413068    0.199404 H    1315 MOH     0.0372 ****
8195 HC3    31.033443   21.471656   -0.894490 H    1315 MOH     0.0372 ****
8196 O1     31.805938   19.576975   -0.678822 O    1315 MOH    -0.6497 ****
8197 HO1    32.411001   19.903574   -0.008485 H    1315 MOH     0.4215 ****
8198 HC1    19.368658   10.105615   -1.516037 H    1316 MOH     0.0372 ****
8199 C1     20.012404   10.889860   -1.912724 C    1316 MOH     0.1166 ****
8200 HC2    20.046467   11.691251   -1.175211 H    1316 MOH     0.0372 ****
8201 HC3    19.613455   11.329951   -2.827720 H    1316 MOH     0.0372 ****
8202 O1     21.324144   10.425273   -2.143241 O    1316 MOH    -0.6497 ****
8203 HO1    21.766394   11.212376   -2.468510 H    1316 MOH     0.4215 ****
8204 HC1    28.644368   21.812543    4.990760 H    1317 MOH     0.0372 ****
8205 C1     29.226337   22.055042    4.101219 C    1317 MOH     0.1166 ****
8206 HC2    29.189964   21.233239    3.386335 H    1317 MOH     0.0372 ****
8207 HC3    30.253443   22.198338    4.438509 H    1317 MOH     0.0372 ****
8208 O1     28.760415   23.299383    3.569475 O    1317 MOH    -0.6497 ****
8209 HO1    29.176107   23.976667    4.107583 H    1317 MOH     0.4215 ****
8210 HC1    26.138667   17.246286    2.662257 H    1318 MOH     0.0372 ****
8211 C1     26.301480   17.022157    3.716553 C    1318 MOH     0.1166 ****
8212 HC2    26.869015   16.095434    3.808477 H    1318 MOH     0.0372 ****
8213 HC3    25.317675   16.904582    4.170516 H    1318 MOH     0.0372 ****
8214 O1     26.994300   18.098708    4.308402 O    1318 MOH    -0.6497 ****
8215 HO1    27.832613   18.189339    3.850197 H    1318 MOH     0.4215 ****
8216 HC1    24.074063   11.180124    7.421793 H    1319 MOH     0.0372 ****
8217 C1     23.680887   11.614909    8.340325 C    1319 MOH     0.1166 ****
8218 HC2    23.496713   12.679620    8.198903 H    1319 MOH     0.0372 ****
8219 HC3    24.380058   11.470797    9.164104 H    1319 MOH     0.0372 ****
8220 O1     22.516372   10.953955    8.669129 O    1319 MOH    -0.6497 ****
8221 HO1    22.092019   11.403436    9.403813 H    1319 MOH     0.4215 ****
8222 HC1    25.860962   17.141366   -6.673674 H    1320 MOH     0.0372 ****
8223 C1     25.727594   16.118704   -7.026520 C    1320 MOH     0.1166 ****
8224 HC2    24.728778   16.041137   -7.455027 H    1320 MOH     0.0372 ****
8225 HC3    25.800918   15.401820   -6.209105 H    1320 MOH     0.0372 ****
8226 O1     26.647890   15.841503   -8.038390 O    1320 MOH    -0.6497 ****
8227 HO1    26.763938   14.893551   -8.130314 H    1320 MOH     0.4215 ****
8228 HC1    28.047965    7.866781   -7.715949 H    1321 MOH     0.0372 ****
8229 C1     27.311266    8.212568   -6.991165 C    1321 MOH     0.1166 ****
8230 HC2    27.040489    7.404644   -6.310221 H    1321 MOH     0.0372 ****
8231 HC3    26.402517    8.512222   -7.511595 H    1321 MOH     0.0372 ****
8232 O1     27.751207    9.294017   -6.197084 O    1321 MOH    -0.6497 ****
8233 HO1    28.698639    9.225432   -6.061319 H    1321 MOH     0.4215 ****
8234 HC1    28.996551   24.422066   -7.363810 H    1322 MOH     0.0372 ****
8235 C1     28.149001   23.757438   -7.194104 C    1322 MOH     0.1166 ****
8236 HC2    27.283553   24.401245   -7.037834 H    1322 MOH     0.0372 ****
8237 HC3    28.381673   23.155680   -6.315878 H    1322 MOH     0.0372 ****
8238 O1     28.015633   23.055659   -8.409621 O    1322 MOH    -0.6497 ****
8239 HO1    28.861451   22.649860   -8.614682 H    1322 MOH     0.4215 ****
8240 HC1    26.885181    5.616108   -1.953736 H    1323 MOH     0.0372 ****
8241 C1     27.920370    5.920253   -2.110006 C    1323 MOH     0.1166 ****
8242 HC2    28.509268    5.017616   -2.277591 H    1323 MOH     0.0372 ****
8243 HC3    28.293339    6.477104   -1.251579 H    1323 MOH     0.0372 ****
8244 O1     27.918061    6.651834   -3.286632 O    1323 MOH    -0.6497 ****
8245 HO1    28.555456    7.360962   -3.177031 H    1323 MOH     0.4215 ****
8246 HC1    30.413946   19.804370    7.217439 H    1324 MOH     0.0372 ****
8247 C1     30.477455   18.881320    6.641147 C    1324 MOH     0.1166 ****
8248 HC2    31.509180   18.677196    6.355476 H    1324 MOH     0.0372 ****
8249 HC3    29.860267   18.993180    5.750193 H    1324 MOH     0.0372 ****
8250 O1     29.959571   17.828040    7.406237 O    1324 MOH    -0.6497 ****
8251 HO1    30.209564   17.003378    6.981973 H    1324 MOH     0.4215 ****
8252 HC1    18.362914   19.111980   -1.265014 H    1325 MOH     0.0372 ****
8253 C1     18.196637   20.182407   -1.146220 C    1325 MOH     0.1166 ****
8254 HC2    18.549975   20.503291   -0.166170 H    1325 MOH     0.0372 ****
8255 HC3    17.129694   20.395513   -1.218345 H    1325 MOH     0.0372 ****
8256 O1     18.883684   20.896842   -2.155969 O    1325 MOH    -0.6497 ****
8257 HO1    18.793040   20.366936   -2.950757 H    1325 MOH     0.4215 ****
8258 HC1    25.026113   25.427990   -4.113947 H    1326 MOH     0.0372 ****
8259 C1     25.897335   24.772751   -4.133039 C    1326 MOH     0.1166 ****
8260 HC2    25.896758   24.201204   -5.060763 H    1326 MOH     0.0372 ****
8261 HC3    25.869622   24.063624   -3.305017 H    1326 MOH     0.0372 ****
8262 O1     27.075707   25.557404   -4.059500 O    1326 MOH    -0.6497 ****
8263 HO1    27.046262   26.068123   -3.247034 H    1326 MOH     0.4215 ****
8264 HC1    20.840901   18.662907   -1.588869 H    1327 MOH     0.0372 ****
8265 C1     21.108215   17.658208   -1.260064 C    1327 MOH     0.1166 ****
8266 HC2    22.052760   17.368760   -1.720391 H    1327 MOH     0.0372 ****
8267 HC3    20.345535   16.944590   -1.569777 H    1327 MOH     0.0372 ****
8268 O1     21.275646   17.665965    0.168999 O    1327 MOH    -0.6497 ****
8269 HO1    20.447148   17.853759    0.615890 H    1327 MOH     0.4215 ****
8270 HC1    32.000505   17.547165   -9.564326 H    1328 MOH     0.0372 ****
8271 C1     31.076167   18.062374   -9.825956 C    1328 MOH     0.1166 ****
8272 HC2    30.363139   18.015425   -9.002176 H    1328 MOH     0.0372 ****
8273 HC3    30.640268   17.616159  -10.719032 H    1328 MOH     0.0372 ****
8274 O1     31.314035   19.411635  -10.105263 O    1328 MOH    -0.6497 ****
8275 HO1    31.818639   19.441845  -10.921264 H    1328 MOH     0.4215 ****
8276 HC1    23.722457   24.740500    0.487904 H    1329 MOH     0.0372 ****
8277 C1     23.351798   24.343682    1.432598 C    1329 MOH     0.1166 ****
8278 HC2    24.206276   24.220800    2.097986 H    1329 MOH     0.0372 ****
8279 HC3    22.880102   23.367969    1.316633 H    1329 MOH     0.0372 ****
8280 O1     22.496742   25.278979    1.994748 O    1329 MOH    -0.6497 ****
8281 HO1    22.681494   25.280612    2.936615 H    1329 MOH     0.4215 ****
8282 HC1    23.606409   11.685944   12.639534 H    1330 MOH     0.0372 ****
8283 C1     24.500725   11.243403   13.079354 C    1330 MOH     0.1166 ****
8284 HC2    24.566542   11.516521   14.132236 H    1330 MOH     0.0372 ****
8285 HC3    25.390999   11.613276   12.570237 H    1330 MOH     0.0372 ****
8286 O1     24.449340    9.830864   12.963389 O    1330 MOH    -0.6497 ****
8287 HO1    25.354626    9.522636   13.051777 H    1330 MOH     0.4215 ****
8288 HC1    22.260028    7.327485   -9.024804 H    1331 MOH     0.0372 ****
8289 C1     22.773870    7.636529   -8.114757 C    1331 MOH     0.1166 ****
8290 HC2    23.856979    7.610401   -8.230723 H    1331 MOH     0.0372 ****
8291 HC3    22.470761    6.997212   -7.284614 H    1331 MOH     0.0372 ****
8292 O1     22.334507    8.893934   -7.831915 O    1331 MOH    -0.6497 ****
8293 HO1    22.002530    9.256050   -8.657108 H    1331 MOH     0.4215 ****
8294 HC1    23.010584   20.065648    6.226075 H    1332 MOH     0.0372 ****
8295 C1     22.944188   19.805186    7.282493 C    1332 MOH     0.1166 ****
8296 HC2    23.052153   18.727002    7.406237 H    1332 MOH     0.0372 ****
8297 HC3    21.960383   20.119945    7.631096 H    1332 MOH     0.0372 ****
8298 O1     23.927993   20.524111    8.005863 O    1332 MOH    -0.6497 ****
8299 HO1    24.750717   20.415109    7.522909 H    1332 MOH     0.4215 ****
8300 HC1    30.557129   22.626590   11.074707 H    1333 MOH     0.0372 ****
8301 C1     30.994760   21.723137   10.649735 C    1333 MOH     0.1166 ****
8302 HC2    31.238402   21.918279    9.606046 H    1333 MOH     0.0372 ****
8303 HC3    30.289238   20.896842   10.743073 H    1333 MOH     0.0372 ****
8304 O1     32.130986   21.425524   11.397147 O    1333 MOH    -0.6497 ****
8305 HO1    32.758565   22.151389   11.349064 H    1333 MOH     0.4215 ****
8306 HC1    27.337246   15.428764   10.441846 H    1334 MOH     0.0372 ****
8307 C1     26.926750   14.472239   10.764994 C    1334 MOH     0.1166 ****
8308 HC2    27.705596   13.709631   10.786207 H    1334 MOH     0.0372 ****
8309 HC3    26.141554   14.193405   10.062837 H    1334 MOH     0.0372 ****
8310 O1     26.330925   14.616759   12.020815 O    1334 MOH    -0.6497 ****
8311 HO1    26.951576   15.065832   12.599229 H    1334 MOH     0.4215 ****
8312 HC1    23.720147   26.154263   -2.587304 H    1335 MOH     0.0372 ****
8313 C1     24.286528   26.459225   -1.706956 C    1335 MOH     0.1166 ****
8314 HC2    24.672198   25.565569   -1.215516 H    1335 MOH     0.0372 ****
8315 HC3    23.632390   26.983007   -1.010456 H    1335 MOH     0.0372 ****
8316 O1     25.381184   27.273680   -2.112128 O    1335 MOH    -0.6497 ****
8317 HO1    25.030155   28.148965   -2.288905 H    1335 MOH     0.4215 ****
8318 HC1    15.636666   16.749448   -3.190466 H    1336 MOH     0.0372 ****
8319 C1     16.195541   17.381824   -2.501037 C    1336 MOH     0.1166 ****
8320 HC2    16.240574   18.382441   -2.931665 H    1336 MOH     0.0372 ****
8321 HC3    17.208791   16.987456   -2.420426 H    1336 MOH     0.0372 ****
8322 O1     15.530434   17.394072   -1.212688 O    1336 MOH    -0.6497 ****
8323 HO1    15.997510   16.775984   -0.647003 H    1336 MOH     0.4215 ****
8324 HC1    24.111591   10.536317   -5.291280 H    1337 MOH     0.0372 ****
8325 C1     23.229399   11.119704   -5.030357 C    1337 MOH     0.1166 ****
8326 HC2    23.533663   12.118279   -4.719231 H    1337 MOH     0.0372 ****
8327 HC3    22.694196   10.629806   -4.217185 H    1337 MOH     0.0372 ****
8328 O1     22.408407   11.174817   -6.197791 O    1337 MOH    -0.6497 ****
8329 HO1    22.317763   10.286061   -6.550637 H    1337 MOH     0.4215 ****
8330 HC1    25.841909   12.399154   -0.224860 H    1338 MOH     0.0372 ****
8331 C1     25.530140   13.442636   -0.260215 C    1338 MOH     0.1166 ****
8332 HC2    26.336121   14.099916    0.067882 H    1338 MOH     0.0372 ****
8333 HC3    24.687209   13.565927    0.418607 H    1338 MOH     0.0372 ****
8334 O1     25.076920   13.788831   -1.554221 O    1338 MOH    -0.6497 ****
8335 HO1    24.865610   14.724536   -1.524522 H    1338 MOH     0.4215 ****
8336 HC1    21.567208   11.570002    0.591849 H    1339 MOH     0.0372 ****
8337 C1     22.338548   11.276879    1.304612 C    1339 MOH     0.1166 ****
8338 HC2    23.236328   11.020499    0.741755 H    1339 MOH     0.0372 ****
8339 HC3    22.008304   10.388531    1.843428 H    1339 MOH     0.0372 ****
8340 O1     22.598933   12.354246    2.213244 O    1339 MOH    -0.6497 ****
8341 HO1    21.932671   12.329343    2.904088 H    1339 MOH     0.4215 ****
8342 HC1    21.437881   12.180741    6.474977 H    1340 MOH     0.0372 ****
8343 C1     21.921124   12.030097    5.509776 C    1340 MOH     0.1166 ****
8344 HC2    22.376653   11.040504    5.489977 H    1340 MOH     0.0372 ****
8345 HC3    22.681494   12.799237    5.371183 H    1340 MOH     0.0372 ****
8346 O1     20.889976   12.079495    4.523362 O    1340 MOH    -0.6497 ****
8347 HO1    20.377289   12.880479    4.653470 H    1340 MOH     0.4215 ****
8348 HC1    17.137777   13.608385    0.141421 H    1341 MOH     0.0372 ****
8349 C1     17.725519   14.524086    0.202940 C    1341 MOH     0.1166 ****
8350 HC2    18.191441   14.734742   -0.760140 H    1341 MOH     0.0372 ****
8351 HC3    18.514180   14.375484    0.939745 H    1341 MOH     0.0372 ****
8352 O1     16.943787   15.648810    0.578413 O    1341 MOH    -0.6497 ****
8353 HO1    16.543683   15.484694    1.435427 H    1341 MOH     0.4215 ****
8354 HC1    30.872940   16.215867   -2.308703 H    1342 MOH     0.0372 ****
8355 C1     31.654672   16.889068   -2.660136 C    1342 MOH     0.1166 ****
8356 HC2    32.214124   16.454284   -3.488158 H    1342 MOH     0.0372 ****
8357 HC3    32.339987   17.094009   -1.838477 H    1342 MOH     0.0372 ****
8358 O1     31.080786   18.088502   -3.105613 O    1342 MOH    -0.6497 ****
8359 HO1    31.275930   18.731901   -2.419719 H    1342 MOH     0.4215 ****
8360 HC1     2.440979  -30.110353  -11.781672 H    1343 MOH     0.0372 ****
8361 C1      1.986605  -29.812331  -12.726366 C    1343 MOH     0.1166 ****
8362 HC2     0.905805  -29.947053  -12.678283 H    1343 MOH     0.0372 ****
8363 HC3     2.409225  -30.436951  -13.514083 H    1343 MOH     0.0372 ****
8364 O1      2.268352  -28.454906  -12.985874 O    1343 MOH    -0.6497 ****
8365 HO1     1.998729  -28.260580  -13.886728 H    1343 MOH     0.4215 ****
8366 HC1     3.481942  -27.196685   -8.658381 H    1344 MOH     0.0372 ****
8367 C1      3.140150  -27.866212   -9.447512 C    1344 MOH     0.1166 ****
8368 HC2     2.641897  -28.742313   -9.031733 H    1344 MOH     0.0372 ****
8369 HC3     4.012527  -28.184237  -10.018147 H    1344 MOH     0.0372 ****
8370 O1      2.358996  -27.136264  -10.369579 O    1344 MOH    -0.6497 ****
8371 HO1     2.386131  -27.623304  -11.196187 H    1344 MOH     0.4215 ****
8372 HC1     7.506073  -31.064837  -20.571009 H    1345 MOH     0.0372 ****
8373 C1      6.925259  -30.683533  -19.730966 C    1345 MOH     0.1166 ****
8374 HC2     7.222594  -29.676385  -19.438931 H    1345 MOH     0.0372 ****
8375 HC3     7.133105  -31.338772  -18.884559 H    1345 MOH     0.0372 ****
8376 O1      5.545969  -30.727216  -20.015930 O    1345 MOH    -0.6497 ****
8377 HO1     5.140669  -31.402050  -19.466508 H    1345 MOH     0.4215 ****
8378 HC1     6.742239  -32.939922   -6.681310 H    1346 MOH     0.0372 ****
8379 C1      6.699515  -32.065862   -7.331141 C    1346 MOH     0.1166 ****
8380 HC2     7.500300  -31.365716   -7.092846 H    1346 MOH     0.0372 ****
8381 HC3     5.760166  -31.549836   -7.135980 H    1346 MOH     0.0372 ****
8382 O1      6.700092  -32.420222   -8.722728 O    1346 MOH    -0.6497 ****
8383 HO1     6.809211  -31.627812   -9.253765 H    1346 MOH     0.4215 ****
8384 HC1    -3.979156  -34.631294  -12.433624 H    1347 MOH     0.0372 ****
8385 C1     -3.116594  -34.168341  -12.913042 C    1347 MOH     0.1166 ****
8386 HC2    -2.329666  -34.053623  -12.167045 H    1347 MOH     0.0372 ****
8387 HC3    -3.433560  -33.176297  -13.235483 H    1347 MOH     0.0372 ****
8388 O1     -2.733811  -34.955852  -14.071990 O    1347 MOH    -0.6497 ****
8389 HO1    -3.427786  -34.909720  -14.733135 H    1347 MOH     0.4215 ****
8390 HC1    -1.376461  -29.573915  -14.089668 H    1348 MOH     0.0372 ****
8391 C1     -2.284055  -29.637601  -13.490042 C    1348 MOH     0.1166 ****
8392 HC2    -2.894892  -30.484308  -13.802583 H    1348 MOH     0.0372 ****
8393 HC3    -2.833115  -28.705570  -13.622271 H    1348 MOH     0.0372 ****
8394 O1     -1.912242  -29.820905  -12.165631 O    1348 MOH    -0.6497 ****
8395 HO1    -1.385121  -30.623521  -12.167045 H    1348 MOH     0.4215 ****
8396 HC1     3.290262  -27.126058  -15.725913 H    1349 MOH     0.0372 ****
8397 C1      2.382667  -26.746387  -16.195432 C    1349 MOH     0.1166 ****
8398 HC2     2.513148  -26.766391  -17.278013 H    1349 MOH     0.0372 ****
8399 HC3     2.239484  -25.715560  -15.873699 H    1349 MOH     0.0372 ****
8400 O1      1.242400  -27.539613  -15.821373 O    1349 MOH    -0.6497 ****
8401 HO1     0.469328  -27.034610  -16.083709 H    1349 MOH     0.4215 ****
8402 HC1     1.829565  -31.980538  -18.318874 H    1350 MOH     0.0372 ****
8403 C1      2.700787  -32.635777  -18.337966 C    1350 MOH     0.1166 ****
8404 HC2     2.700210  -33.207324  -19.265690 H    1350 MOH     0.0372 ****
8405 HC3     2.673074  -33.344904  -17.509944 H    1350 MOH     0.0372 ****
8406 O1      3.879159  -31.851123  -18.264426 O    1350 MOH    -0.6497 ****
8407 HO1     3.849714  -31.340405  -17.451961 H    1350 MOH     0.4215 ****
8408 HC1     0.525908  -32.668028  -13.717023 H    1351 MOH     0.0372 ****
8409 C1      0.155250  -33.064846  -12.772328 C    1351 MOH     0.1166 ****
8410 HC2     1.009728  -33.187728  -12.106941 H    1351 MOH     0.0372 ****
8411 HC3    -0.316446  -34.040559  -12.888294 H    1351 MOH     0.0372 ****
8412 O1     -0.699806  -32.129549  -12.210178 O    1351 MOH    -0.6497 ****
8413 HO1    -0.515054  -32.127916  -11.268312 H    1351 MOH     0.4215 ****
8414 HC1     0.523599  -31.254264  -16.792230 H    1352 MOH     0.0372 ****
8415 C1      1.089980  -30.949303  -15.911882 C    1352 MOH     0.1166 ****
8416 HC2     1.475650  -31.842959  -15.420443 H    1352 MOH     0.0372 ****
8417 HC3     0.435842  -30.425520  -15.215382 H    1352 MOH     0.0372 ****
8418 O1      2.184636  -30.134848  -16.317054 O    1352 MOH    -0.6497 ****
8419 HO1     1.833607  -29.259563  -16.493831 H    1352 MOH     0.4215 ****
8420 HC1    12.576248  -18.451761  -16.242101 H    1353 MOH     0.0372 ****
8421 C1     11.539904  -18.312957  -15.935217 C    1353 MOH     0.1166 ****
8422 HC2    10.976410  -17.948800  -16.793644 H    1353 MOH     0.0372 ****
8423 HC3    11.470045  -17.563005  -15.146793 H    1353 MOH     0.0372 ****
8424 O1     11.014515  -19.555665  -15.518024 O    1353 MOH    -0.6497 ****
8425 HO1    10.251836  -19.403388  -14.955874 H    1353 MOH     0.4215 ****
8426 HC1     7.074677  -28.992732  -12.150781 H    1354 MOH     0.0372 ****
8427 C1      6.273892  -29.386692  -11.524992 C    1354 MOH     0.1166 ****
8428 HC2     5.708089  -30.117048  -12.104112 H    1354 MOH     0.0372 ****
8429 HC3     5.601279  -28.609795  -11.163660 H    1354 MOH     0.0372 ****
8430 O1      6.770991  -30.127662  -10.480595 O    1354 MOH    -0.6497 ****
8431 HO1     7.315432  -29.531620   -9.961579 H    1354 MOH     0.4215 ****
8432 HC1    19.184022  -27.753699   -7.644390 H    1355 MOH     0.0372 ****
8433 C1     19.245221  -26.973944   -6.886371 C    1355 MOH     0.1166 ****
8434 HC2    19.605487  -27.419752   -5.958647 H    1355 MOH     0.0372 ****
8435 HC3    18.252178  -26.548550   -6.740707 H    1355 MOH     0.0372 ****
8436 O1     20.116442  -25.951282   -7.314171 O    1355 MOH    -0.6497 ****
8437 HO1    21.003252  -26.311357   -7.380639 H    1355 MOH     0.4215 ****
8438 HC1    25.442499  -23.004546  -13.424988 H    1356 MOH     0.0372 ****
8439 C1     25.876089  -22.811445  -12.444230 C    1356 MOH     0.1166 ****
8440 HC2    26.161877  -21.760614  -12.393319 H    1356 MOH     0.0372 ****
8441 HC3    26.764053  -23.430758  -12.317658 H    1356 MOH     0.0372 ****
8442 O1     24.921729  -23.126204  -11.436603 O    1356 MOH    -0.6497 ****
8443 HO1    25.122647  -24.017819  -11.143861 H    1356 MOH     0.4215 ****
8444 HC1    13.625871  -19.903084  -11.573075 H    1357 MOH     0.0372 ****
8445 C1     14.229779  -19.351541  -10.852533 C    1357 MOH     0.1166 ****
8446 HC2    15.041533  -19.986775  -10.498980 H    1357 MOH     0.0372 ****
8447 HC3    13.581415  -19.065767  -10.023804 H    1357 MOH     0.0372 ****
8448 O1     14.734383  -18.227633  -11.508021 O    1357 MOH    -0.6497 ****
8449 HO1    15.547292  -17.965946  -11.068908 H    1357 MOH     0.4215 ****
8450 HC1    11.687706  -25.224600   -7.188306 H    1358 MOH     0.0372 ****
8451 C1     10.667528  -25.517314   -6.940111 C    1358 MOH     0.1166 ****
8452 HC2    10.506447  -25.459751   -5.864602 H    1358 MOH     0.0372 ****
8453 HC3    10.459104  -26.539568   -7.256895 H    1358 MOH     0.0372 ****
8454 O1      9.781295  -24.624884   -7.541152 O    1358 MOH    -0.6497 ****
8455 HO1    10.232783  -24.248479   -8.300585 H    1358 MOH     0.4215 ****
8456 HC1    24.395185  -20.251728  -16.511509 H    1359 MOH     0.0372 ****
8457 C1     24.443683  -21.339302  -16.562420 C    1359 MOH     0.1166 ****
8458 HC2    24.065518  -21.694069  -17.520550 H    1359 MOH     0.0372 ****
8459 HC3    23.836888  -21.785925  -15.774703 H    1359 MOH     0.0372 ****
8460 O1     25.780249  -21.773678  -16.488881 O    1359 MOH    -0.6497 ****
8461 HO1    25.747917  -22.733061  -16.467668 H    1359 MOH     0.4215 ****
8462 HC1    15.484939  -21.276431  -22.084924 H    1360 MOH     0.0372 ****
8463 C1     15.530549  -21.731220  -23.074874 C    1360 MOH     0.1166 ****
8464 HC2    16.447959  -22.310116  -23.183768 H    1360 MOH     0.0372 ****
8465 HC3    15.520157  -20.953507  -23.837842 H    1360 MOH     0.0372 ****
8466 O1     14.427233  -22.567721  -23.291956 O    1360 MOH    -0.6497 ****
8467 HO1    14.686463  -23.455252  -23.034569 H    1360 MOH     0.4215 ****
8468 HC1     6.286594  -22.437898  -10.984055 H    1361 MOH     0.0372 ****
8469 C1      7.326979  -22.410545  -11.310031 C    1361 MOH     0.1166 ****
8470 HC2     7.911258  -23.050270  -10.647472 H    1361 MOH     0.0372 ****
8471 HC3     7.668193  -21.376860  -11.256291 H    1361 MOH     0.0372 ****
8472 O1      7.393952  -22.892686  -12.633028 O    1361 MOH    -0.6497 ****
8473 HO1     6.799281  -23.645496  -12.676869 H    1361 MOH     0.4215 ****
8474 HC1     9.166995  -27.120097  -15.143964 H    1362 MOH     0.0372 ****
8475 C1     10.081517  -26.813911  -15.651667 C    1362 MOH     0.1166 ****
8476 HC2    10.676765  -26.159489  -15.014564 H    1362 MOH     0.0372 ****
8477 HC3     9.806121  -26.267675  -16.553935 H    1362 MOH     0.0372 ****
8478 O1     10.783575  -27.953332  -16.049768 O    1362 MOH    -0.6497 ****
8479 HO1    11.718305  -27.754515  -15.959965 H    1362 MOH     0.4215 ****
8480 HC1     6.112812  -27.457719  -19.999667 H    1363 MOH     0.0372 ****
8481 C1      6.155536  -27.216036  -18.937592 C    1363 MOH     0.1166 ****
8482 HC2     7.192457  -27.278089  -18.606666 H    1363 MOH     0.0372 ****
8483 HC3     5.557978  -27.917815  -18.355643 H    1363 MOH     0.0372 ****
8484 O1      5.721945  -25.922297  -18.668184 O    1363 MOH    -0.6497 ****
8485 HO1     4.952338  -25.730828  -19.209121 H    1363 MOH     0.4215 ****
8486 HC1     3.509539  -23.520164  -12.284424 H    1364 MOH     0.0372 ****
8487 C1      3.074794  -24.405654  -11.821270 C    1364 MOH     0.1166 ****
8488 HC2     2.662566  -25.080489  -12.571510 H    1364 MOH     0.0372 ****
8489 HC3     2.252648  -24.119472  -11.164367 H    1364 MOH     0.0372 ****
8490 O1      3.980080  -25.108250  -11.025774 O    1364 MOH    -0.6497 ****
8491 HO1     3.453536  -25.825950  -10.665150 H    1364 MOH     0.4215 ****
8492 HC1    29.191234  -22.586092  -14.258666 H    1365 MOH     0.0372 ****
8493 C1     29.273795  -21.646304  -13.712780 C    1365 MOH     0.1166 ****
8494 HC2    28.447029  -20.990657  -13.985723 H    1365 MOH     0.0372 ****
8495 HC3    30.231042  -21.184167  -13.957439 H    1365 MOH     0.0372 ****
8496 O1     29.232803  -22.004338  -12.371398 O    1365 MOH    -0.6497 ****
8497 HO1    29.456815  -21.261326  -11.807127 H    1365 MOH     0.4215 ****
8498 HC1    17.098633  -17.961863  -14.515346 H    1366 MOH     0.0372 ****
8499 C1     16.432948  -17.102909  -14.430493 C    1366 MOH     0.1166 ****
8500 HC2    15.390830  -17.422976  -14.437565 H    1366 MOH     0.0372 ****
8501 HC3    16.568048  -16.478289  -15.312963 H    1366 MOH     0.0372 ****
8502 O1     16.658692  -16.306008  -13.226998 O    1366 MOH    -0.6497 ****
8503 HO1    16.585945  -16.873065  -12.456958 H    1366 MOH     0.4215 ****
8504 HC1     9.422183  -25.348300  -19.612879 H    1367 MOH     0.0372 ****
8505 C1      8.881784  -24.478731  -19.986232 C    1367 MOH     0.1166 ****
8506 HC2     8.438379  -24.808187  -20.925976 H    1367 MOH     0.0372 ****
8507 HC3     9.604626  -23.675707  -20.132603 H    1367 MOH     0.0372 ****
8508 O1      7.890473  -24.140293  -18.992746 O    1367 MOH    -0.6497 ****
8509 HO1     7.254810  -24.854319  -18.910015 H    1367 MOH     0.4215 ****
8510 HC1     7.865647  -32.120322  -23.921988 H    1368 MOH     0.0372 ****
8511 C1      8.278453  -31.112766  -23.958757 C    1368 MOH     0.1166 ****
8512 HC2     8.193005  -30.642055  -22.979414 H    1368 MOH     0.0372 ****
8513 HC3     7.701680  -30.524888  -24.672935 H    1368 MOH     0.0372 ****
8514 O1      9.617905  -31.168287  -24.390092 O    1368 MOH    -0.6497 ****
8515 HO1     9.651391  -31.828833  -25.085886 H    1368 MOH     0.4215 ****
8516 HC1    14.039253  -13.707916  -11.781672 H    1369 MOH     0.0372 ****
8517 C1     13.584879  -13.409895  -12.726366 C    1369 MOH     0.1166 ****
8518 HC2    12.504079  -13.544617  -12.678283 H    1369 MOH     0.0372 ****
8519 HC3    14.007499  -14.034515  -13.514083 H    1369 MOH     0.0372 ****
8520 O1     13.866626  -12.052469  -12.985874 O    1369 MOH    -0.6497 ****
8521 HO1    13.597003  -11.858143  -13.886728 H    1369 MOH     0.4215 ****
8522 HC1    15.080216  -10.794248   -8.658381 H    1370 MOH     0.0372 ****
8523 C1     14.738425  -11.463775   -9.447512 C    1370 MOH     0.1166 ****
8524 HC2    14.240171  -12.339876   -9.031733 H    1370 MOH     0.0372 ****
8525 HC3    15.610801  -11.781801  -10.018147 H    1370 MOH     0.0372 ****
8526 O1     13.957270  -10.733827  -10.369579 O    1370 MOH    -0.6497 ****
8527 HO1    13.984405  -11.220868  -11.196187 H    1370 MOH     0.4215 ****
8528 HC1    17.846878  -27.500176  -12.989410 H    1371 MOH     0.0372 ****
8529 C1     17.706582  -27.654494  -14.058555 C    1371 MOH     0.1166 ****
8530 HC2    17.510283  -26.700010  -14.547873 H    1371 MOH     0.0372 ****
8531 HC3    16.872311  -28.333411  -14.234625 H    1371 MOH     0.0372 ****
8532 O1     18.882067  -28.208896  -14.610099 O    1371 MOH    -0.6497 ****
8533 HO1    19.528700  -28.309733  -13.907941 H    1371 MOH     0.4215 ****
8534 HC1    20.610077  -19.463809  -11.698940 H    1372 MOH     0.0372 ****
8535 C1     21.092742  -20.429724  -11.846018 C    1372 MOH     0.1166 ****
8536 HC2    20.319670  -21.183759  -11.993803 H    1372 MOH     0.0372 ****
8537 HC3    21.657390  -20.672224  -10.946578 H    1372 MOH     0.0372 ****
8538 O1     22.000914  -20.401963  -12.968904 O    1372 MOH    -0.6497 ****
8539 HO1    22.712209  -19.797756  -12.739801 H    1372 MOH     0.4215 ****
8540 HC1    23.174667  -16.192107   -3.562969 H    1373 MOH     0.0372 ****
8541 C1     22.463371  -17.017993   -3.573576 C    1373 MOH     0.1166 ****
8542 HC2    22.825370  -17.749166   -4.296946 H    1373 MOH     0.0372 ****
8543 HC3    21.474370  -16.645671   -3.843691 H    1373 MOH     0.0372 ****
8544 O1     22.399863  -17.591582   -2.288763 O    1373 MOH    -0.6497 ****
8545 HO1    22.123889  -16.907766   -1.674287 H    1373 MOH     0.4215 ****
8546 HC1    19.104347  -14.662401  -20.571009 H    1374 MOH     0.0372 ****
8547 C1     18.523533  -14.281097  -19.730966 C    1374 MOH     0.1166 ****
8548 HC2    18.820868  -13.273948  -19.438931 H    1374 MOH     0.0372 ****
8549 HC3    18.731379  -14.936335  -18.884559 H    1374 MOH     0.0372 ****
8550 O1     17.144243  -14.324779  -20.015930 O    1374 MOH    -0.6497 ****
8551 HO1    16.738943  -14.999614  -19.466508 H    1374 MOH     0.4215 ****
8552 HC1     7.682050  -25.019252   -9.545093 H    1375 MOH     0.0372 ****
8553 C1      7.290606  -25.788391  -10.209773 C    1375 MOH     0.1166 ****
8554 HC2     7.790014  -25.754507  -11.177802 H    1375 MOH     0.0372 ****
8555 HC3     6.219044  -25.625909  -10.334224 H    1375 MOH     0.0372 ****
8556 O1      7.431480  -27.055186   -9.624996 O    1375 MOH    -0.6497 ****
8557 HO1     6.985188  -27.055594   -8.775761 H    1375 MOH     0.4215 ****
8558 HC1    18.036827  -23.660193  -14.793946 H    1376 MOH     0.0372 ****
8559 C1     16.973348  -23.459335  -14.925468 C    1376 MOH     0.1166 ****
8560 HC2    16.391378  -24.380343  -14.898598 H    1376 MOH     0.0372 ****
8561 HC3    16.808225  -22.988625  -15.894912 H    1376 MOH     0.0372 ****
8562 O1     16.523014  -22.568945  -13.946125 O    1376 MOH    -0.6497 ****
8563 HO1    16.633288  -21.674473  -14.276344 H    1376 MOH     0.4215 ****
8564 HC1    21.749766  -20.732645  -17.590554 H    1377 MOH     0.0372 ****
8565 C1     21.345621  -20.386858  -18.541612 C    1377 MOH     0.1166 ****
8566 HC2    20.412623  -20.910233  -18.753744 H    1377 MOH     0.0372 ****
8567 HC3    22.066732  -20.531786  -19.345593 H    1377 MOH     0.0372 ****
8568 O1     21.099093  -19.020860  -18.387463 O    1377 MOH    -0.6497 ****
8569 HO1    21.923549  -18.565254  -18.199373 H    1377 MOH     0.4215 ****
8570 HC1    16.947367  -20.060668  -20.054114 H    1378 MOH     0.0372 ****
8571 C1     16.710076  -20.347258  -19.028809 C    1378 MOH     0.1166 ****
8572 HC2    17.472178  -21.009845  -18.619394 H    1378 MOH     0.0372 ****
8573 HC3    15.756871  -20.875940  -19.047901 H    1378 MOH     0.0372 ****
8574 O1     16.608462  -19.220901  -18.190887 O    1378 MOH    -0.6497 ****
8575 HO1    17.382112  -18.664459  -18.310388 H    1378 MOH     0.4215 ****
8576 HC1    14.044450  -30.637565  -11.479737 H    1379 MOH     0.0372 ****
8577 C1     14.132784  -29.651645  -11.023653 C    1379 MOH     0.1166 ****
8578 HC2    13.531763  -29.619802  -10.115728 H    1379 MOH     0.0372 ****
8579 HC3    13.780600  -28.916390  -11.747023 H    1379 MOH     0.0372 ****
8580 O1     15.472814  -29.447929  -10.716062 O    1379 MOH    -0.6497 ****
8581 HO1    15.957788  -29.914557  -11.399834 H    1379 MOH     0.4215 ****
8582 HC1    23.989308  -18.845313  -19.257204 H    1380 MOH     0.0372 ****
8583 C1     24.409619  -17.961863  -18.776372 C    1380 MOH     0.1166 ****
8584 HC2    24.663076  -17.220076  -19.533683 H    1380 MOH     0.0372 ****
8585 HC3    25.296429  -18.244780  -18.209979 H    1380 MOH     0.0372 ****
8586 O1     23.404452  -17.465434  -17.953299 O    1380 MOH    -0.6497 ****
8587 HO1    23.760677  -17.269066  -17.084265 H    1380 MOH     0.4215 ****
8588 HC1    18.340513  -16.537485   -6.681310 H    1381 MOH     0.0372 ****
8589 C1     18.297789  -15.663426   -7.331141 C    1381 MOH     0.1166 ****
8590 HC2    19.098574  -14.963280   -7.092846 H    1381 MOH     0.0372 ****
8591 HC3    17.358440  -15.147400   -7.135980 H    1381 MOH     0.0372 ****
8592 O1     18.298366  -16.017785   -8.722728 O    1381 MOH    -0.6497 ****
8593 HO1    18.407486  -15.225375   -9.253765 H    1381 MOH     0.4215 ****
8594 HC1    12.654190  -20.806946  -18.067144 H    1382 MOH     0.0372 ****
8595 C1     12.071644  -21.679781  -17.771573 C    1382 MOH     0.1166 ****
8596 HC2    12.407662  -22.594665  -18.258770 H    1382 MOH     0.0372 ****
8597 HC3    11.051466  -21.499743  -18.108863 H    1382 MOH     0.0372 ****
8598 O1     12.064716  -21.826750  -16.368673 O    1382 MOH    -0.6497 ****
8599 HO1    11.878231  -20.964938  -15.987543 H    1382 MOH     0.4215 ****
8600 HC1    11.823383  -23.821451  -13.796219 H    1383 MOH     0.0372 ****
8601 C1     12.855108  -24.105184  -14.001987 C    1383 MOH     0.1166 ****
8602 HC2    13.125885  -24.931070  -13.345085 H    1383 MOH     0.0372 ****
8603 HC3    13.503472  -23.254394  -13.791269 H    1383 MOH     0.0372 ****
8604 O1     12.993095  -24.424434  -15.363874 O    1383 MOH    -0.6497 ****
8605 HO1    12.696337  -23.631616  -15.816423 H    1383 MOH     0.4215 ****
8606 HC1    17.317448  -24.548950  -19.482771 H    1384 MOH     0.0372 ****
8607 C1     17.331882  -23.841455  -20.312208 C    1384 MOH     0.1166 ****
8608 HC2    16.341149  -23.410345  -20.453629 H    1384 MOH     0.0372 ****
8609 HC3    17.670787  -24.334619  -21.222961 H    1384 MOH     0.0372 ****
8610 O1     18.208877  -22.789808  -20.005323 O    1384 MOH    -0.6497 ****
8611 HO1    18.405176  -22.782868  -19.065578 H    1384 MOH     0.4215 ****
8612 HC1    11.113820  -20.066792  -12.599087 H    1385 MOH     0.0372 ****
8613 C1     10.874219  -20.699576  -11.744902 C    1385 MOH     0.1166 ****
8614 HC2     9.828638  -20.575061  -11.464181 H    1385 MOH     0.0372 ****
8615 HC3    11.506418  -20.392165  -10.911223 H    1385 MOH     0.0372 ****
8616 O1     11.176173  -22.049654  -12.060979 O    1385 MOH    -0.6497 ****
8617 HO1    10.713716  -22.322772  -12.856474 H    1385 MOH     0.4215 ****
8618 HC1     8.520362  -28.005180  -21.698844 H    1386 MOH     0.0372 ****
8619 C1      9.308445  -27.970887  -22.451206 C    1386 MOH     0.1166 ****
8620 HC2     8.888134  -27.579377  -23.378223 H    1386 MOH     0.0372 ****
8621 HC3     9.706240  -28.968646  -22.637882 H    1386 MOH     0.0372 ****
8622 O1     10.314767  -27.070699  -22.101188 O    1386 MOH    -0.6497 ****
8623 HO1    11.142110  -27.535694  -22.244731 H    1386 MOH     0.4215 ****
8624 HC1    11.724079  -28.625717  -24.416963 H    1387 MOH     0.0372 ****
8625 C1     12.154205  -29.195632  -23.592476 C    1387 MOH     0.1166 ****
8626 HC2    12.929586  -29.839439  -24.007548 H    1387 MOH     0.0372 ****
8627 HC3    11.408846  -29.844338  -23.132150 H    1387 MOH     0.0372 ****
8628 O1     12.723472  -28.301160  -22.652731 O    1387 MOH    -0.6497 ****
8629 HO1    13.138010  -28.840456  -21.976030 H    1387 MOH     0.4215 ****
8630 HC1    22.071350  -19.910433  -22.131593 H    1388 MOH     0.0372 ****
8631 C1     22.814978  -20.431357  -22.734048 C    1388 MOH     0.1166 ****
8632 HC2    23.730655  -19.841847  -22.782132 H    1388 MOH     0.0372 ****
8633 HC3    22.478960  -20.552607  -23.764303 H    1388 MOH     0.0372 ****
8634 O1     23.153305  -21.660185  -22.149978 O    1388 MOH    -0.6497 ****
8635 HO1    22.449515  -21.931670  -21.556716 H    1388 MOH     0.4215 ****
8636 HC1    21.821935  -24.762872  -20.099368 H    1389 MOH     0.0372 ****
8637 C1     20.884896  -24.506900  -20.592222 C    1389 MOH     0.1166 ****
8638 HC2    20.046583  -24.838806  -19.979160 H    1389 MOH     0.0372 ****
8639 HC3    20.866420  -25.005779  -21.560958 H    1389 MOH     0.0372 ****
8640 O1     20.854296  -23.123347  -20.809304 O    1389 MOH    -0.6497 ****
8641 HO1    19.938041  -22.882072  -20.961332 H    1389 MOH     0.4215 ****
8642 HC1    11.875345  -25.465059  -10.857483 H    1390 MOH     0.0372 ****
8643 C1     10.865559  -25.065792  -10.765559 C    1390 MOH     0.1166 ****
8644 HC2    10.252990  -25.807171  -10.252200 H    1390 MOH     0.0372 ****
8645 HC3    10.464301  -24.873915  -11.761165 H    1390 MOH     0.0372 ****
8646 O1     10.933686  -23.876973  -10.003298 O    1390 MOH    -0.6497 ****
8647 HO1    11.267972  -23.183767  -10.577469 H    1390 MOH     0.4215 ****
8648 HC1     7.619118  -18.228858  -12.433624 H    1391 MOH     0.0372 ****
8649 C1      8.481680  -17.765904  -12.913042 C    1391 MOH     0.1166 ****
8650 HC2     9.268608  -17.651186  -12.167045 H    1391 MOH     0.0372 ****
8651 HC3     8.164714  -16.773861  -13.235483 H    1391 MOH     0.0372 ****
8652 O1      8.864463  -18.553415  -14.071990 O    1391 MOH    -0.6497 ****
8653 HO1     8.170488  -18.507283  -14.733135 H    1391 MOH     0.4215 ****
8654 HC1    14.305412  -22.791441   -6.172900 H    1392 MOH     0.0372 ****
8655 C1     14.913362  -21.920647   -6.421095 C    1392 MOH     0.1166 ****
8656 HC2    15.962984  -22.190091   -6.535646 H    1392 MOH     0.0372 ****
8657 HC3    14.856781  -21.198456   -5.605801 H    1392 MOH     0.0372 ****
8658 O1     14.518454  -21.358489   -7.630955 O    1392 MOH    -0.6497 ****
8659 HO1    14.800201  -21.956981   -8.326748 H    1392 MOH     0.4215 ****
8660 HC1    19.886080  -16.541568  -16.860819 H    1393 MOH     0.0372 ****
8661 C1     18.871098  -16.924913  -16.964764 C    1393 MOH     0.1166 ****
8662 HC2    18.149987  -16.107600  -16.943551 H    1393 MOH     0.0372 ****
8663 HC3    18.636116  -17.619751  -16.158662 H    1393 MOH     0.0372 ****
8664 O1     18.743503  -17.636898  -18.147047 O    1393 MOH    -0.6497 ****
8665 HO1    19.464037  -18.270091  -18.178867 H    1393 MOH     0.4215 ****
8666 HC1    22.760129  -24.823701   -9.600954 H    1394 MOH     0.0372 ****
8667 C1     22.137746  -23.929229   -9.610146 C    1394 MOH     0.1166 ****
8668 HC2    22.581728  -23.142126   -9.000620 H    1394 MOH     0.0372 ****
8669 HC3    21.166065  -24.207246   -9.200732 H    1394 MOH     0.0372 ****
8670 O1     21.958190  -23.476481  -10.931729 O    1394 MOH    -0.6497 ****
8671 HO1    22.815555  -23.200914  -11.264776 H    1394 MOH     0.4215 ****
8672 HC1    18.744081  -19.176810  -21.081540 H    1395 MOH     0.0372 ****
8673 C1     19.337020  -19.515248  -21.930775 C    1395 MOH     0.1166 ****
8674 HC2    19.704214  -20.510966  -21.682581 H    1395 MOH     0.0372 ****
8675 HC3    20.183992  -18.845313  -22.082803 H    1395 MOH     0.0372 ****
8676 O1     18.532771  -19.566279  -23.101037 O    1395 MOH    -0.6497 ****
8677 HO1    18.939803  -20.216619  -23.678743 H    1395 MOH     0.4215 ****
8678 HC1    14.500556  -18.855927  -15.419029 H    1396 MOH     0.0372 ****
8679 C1     14.681844  -19.894103  -15.139722 C    1396 MOH     0.1166 ****
8680 HC2    14.022510  -20.531378  -15.728742 H    1396 MOH     0.0372 ****
8681 HC3    14.457255  -20.048829  -14.084011 H    1396 MOH     0.0372 ****
8682 O1     16.012059  -20.289695  -15.380845 O    1396 MOH    -0.6497 ****
8683 HO1    16.191615  -20.181509  -16.317761 H    1396 MOH     0.4215 ****
8684 HC1    18.389010  -24.644071  -11.760458 H    1397 MOH     0.0372 ****
8685 C1     18.842808  -23.764705  -11.303667 C    1397 MOH     0.1166 ****
8686 HC2    19.679966  -23.447904  -11.925921 H    1397 MOH     0.0372 ****
8687 HC3    19.146494  -24.013736  -10.286848 H    1397 MOH     0.0372 ****
8688 O1     17.892489  -22.766946  -11.339023 O    1397 MOH    -0.6497 ****
8689 HO1    17.564554  -22.711424  -12.239877 H    1397 MOH     0.4215 ****
8690 HC1    10.221813  -13.171478  -14.089668 H    1398 MOH     0.0372 ****
8691 C1      9.314219  -13.235165  -13.490042 C    1398 MOH     0.1166 ****
8692 HC2     8.703382  -14.081872  -13.802583 H    1398 MOH     0.0372 ****
8693 HC3     8.765159  -12.303134  -13.622271 H    1398 MOH     0.0372 ****
8694 O1      9.686032  -13.418468  -12.165631 O    1398 MOH    -0.6497 ****
8695 HO1    10.213153  -14.221084  -12.167045 H    1398 MOH     0.4215 ****
8696 HC1    25.751958  -21.325013   -6.383618 H    1399 MOH     0.0372 ****
8697 C1     25.499079  -20.460343   -5.769850 C    1399 MOH     0.1166 ****
8698 HC2    26.306792  -20.277039   -5.062036 H    1399 MOH     0.0372 ****
8699 HC3    24.581092  -20.693044   -5.231034 H    1399 MOH     0.0372 ****
8700 O1     25.306821  -19.351949   -6.626156 O    1399 MOH    -0.6497 ****
8701 HO1    24.621506  -19.623026   -7.241339 H    1399 MOH     0.4215 ****
8702 HC1    17.758544  -27.242980  -19.112955 H    1400 MOH     0.0372 ****
8703 C1     18.685768  -27.419752  -18.569189 C    1400 MOH     0.1166 ****
8704 HC2    18.619950  -28.344434  -17.995726 H    1400 MOH     0.0372 ****
8705 HC3    18.909203  -26.583251  -17.906630 H    1400 MOH     0.0372 ****
8706 O1     19.689203  -27.521814  -19.499742 O    1400 MOH    -0.6497 ****
8707 HO1    20.499226  -27.180926  -19.112954 H    1400 MOH     0.4215 ****
8708 HC1    15.661608  -27.098868  -24.385850 H    1401 MOH     0.0372 ****
8709 C1     15.941623  -28.007221  -23.851984 C    1401 MOH     0.1166 ****
8710 HC2    16.749913  -28.502834  -24.389385 H    1401 MOH     0.0372 ****
8711 HC3    15.110816  -28.713082  -23.828650 H    1401 MOH     0.0372 ****
8712 O1     16.379254  -27.745942  -22.532523 O    1401 MOH    -0.6497 ****
8713 HO1    16.031689  -28.450579  -21.980980 H    1401 MOH     0.4215 ****
8714 HC1    19.352030  -25.397289   -2.499481 H    1402 MOH     0.0372 ****
8715 C1     18.460602  -24.770628   -2.531301 C    1402 MOH     0.1166 ****
8716 HC2    17.572060  -25.401372   -2.571606 H    1402 MOH     0.0372 ****
8717 HC3    18.469839  -24.152540   -3.429326 H    1402 MOH     0.0372 ****
8718 O1     18.470994  -23.923105   -1.409829 O    1402 MOH    -0.6497 ****
8719 HO1    19.226745  -23.342984   -1.526502 H    1402 MOH     0.4215 ****
8720 HC1    26.605282  -24.800431  -14.960116 H    1403 MOH     0.0372 ****
8721 C1     25.595496  -25.121314  -15.216089 C    1403 MOH     0.1166 ****
8722 HC2    24.898057  -24.690612  -14.496961 H    1403 MOH     0.0372 ****
8723 HC3    25.514090  -26.207662  -15.181441 H    1403 MOH     0.0372 ****
8724 O1     25.240426  -24.662034  -16.488174 O    1403 MOH    -0.6497 ****
8725 HO1    25.839138  -25.069466  -17.117499 H    1403 MOH     0.4215 ****
8726 HC1    21.009026  -24.135394   -3.912987 H    1404 MOH     0.0372 ****
8727 C1     21.233615  -23.069458   -3.862783 C    1404 MOH     0.1166 ****
8728 HC2    20.874503  -22.521589   -4.733938 H    1404 MOH     0.0372 ****
8729 HC3    22.319611  -23.022917   -3.934907 H    1404 MOH     0.0372 ****
8730 O1     20.872771  -22.471374   -2.596354 O    1404 MOH    -0.6497 ****
8731 HO1    20.800602  -21.522605   -2.722219 H    1404 MOH     0.4215 ****
8732 HC1    15.251112  -26.229300   -7.463370 H    1405 MOH     0.0372 ****
8733 C1     15.596367  -27.072332   -8.060876 C    1405 MOH     0.1166 ****
8734 HC2    16.336530  -27.604280   -7.461956 H    1405 MOH     0.0372 ****
8735 HC3    16.038040  -26.686538   -8.979407 H    1405 MOH     0.0372 ****
8736 O1     14.543858  -27.990074   -8.394630 O    1405 MOH    -0.6497 ****
8737 HO1    14.822718  -28.503243   -9.156184 H    1405 MOH     0.4215 ****
8738 HC1    22.408523  -17.692011  -13.685910 H    1406 MOH     0.0372 ****
8739 C1     21.916043  -17.255594  -14.554944 C    1406 MOH     0.1166 ****
8740 HC2    20.973808  -16.768145  -14.304628 H    1406 MOH     0.0372 ****
8741 HC3    21.663741  -18.090053  -15.209725 H    1406 MOH     0.0372 ****
8742 O1     22.753778  -16.330503  -15.254980 O    1406 MOH    -0.6497 ****
8743 HO1    22.212801  -15.630766  -15.626918 H    1406 MOH     0.4215 ****
8744 HC1    21.283845  -24.528129  -14.040170 H    1407 MOH     0.0372 ****
8745 C1     21.947220  -25.349933  -13.770763 C    1407 MOH     0.1166 ****
8746 HC2    22.963357  -24.963730  -13.692981 H    1407 MOH     0.0372 ****
8747 HC3    21.933364  -26.132545  -14.529488 H    1407 MOH     0.0372 ****
8748 O1     21.569056  -25.776960  -12.483828 O    1407 MOH    -0.6497 ****
8749 HO1    21.622749  -25.007821  -11.912486 H    1407 MOH     0.4215 ****
8750 HC1    25.063757  -18.328879   -9.936830 H    1408 MOH     0.0372 ****
8751 C1     24.724275  -19.074748  -10.655957 C    1408 MOH     0.1166 ****
8752 HC2    24.217939  -19.912065  -10.174418 H    1408 MOH     0.0372 ****
8753 HC3    25.611085  -19.471566  -11.150932 H    1408 MOH     0.0372 ****
8754 O1     23.883075  -18.454211  -11.610552 O    1408 MOH    -0.6497 ****
8755 HO1    24.412506  -17.769170  -12.026330 H    1408 MOH     0.4215 ****
8756 HC1    15.770150  -25.565080  -18.917793 H    1409 MOH     0.0372 ****
8757 C1     15.139683  -25.878614  -18.086236 C    1409 MOH     0.1166 ****
8758 HC2    14.163384  -26.191332  -18.456759 H    1409 MOH     0.0372 ****
8759 HC3    14.969365  -25.051503  -17.396099 H    1409 MOH     0.0372 ****
8760 O1     15.741859  -26.932711  -17.390442 O    1409 MOH    -0.6497 ****
8761 HO1    15.091186  -27.287071  -16.780916 H    1409 MOH     0.4215 ****
8762 HC1    18.432312  -20.832665  -15.773996 H    1410 MOH     0.0372 ****
8763 C1     19.088759  -20.557098  -14.948803 C    1410 MOH     0.1166 ****
8764 HC2    18.542008  -20.593024  -14.005522 H    1410 MOH     0.0372 ****
8765 HC3    19.435169  -19.534436  -15.099416 H    1410 MOH     0.0372 ****
8766 O1     20.207664  -21.429116  -14.883749 O    1410 MOH    -0.6497 ****
8767 HO1    20.812727  -21.102518  -14.213412 H    1410 MOH     0.4215 ****
8768 HC1    22.208760  -16.117806   -8.006428 H    1411 MOH     0.0372 ****
8769 C1     21.896991  -16.536669   -7.049006 C    1411 MOH     0.1166 ****
8770 HC2    21.369870  -15.790391   -6.456450 H    1411 MOH     0.0372 ****
8771 HC3    22.789574  -16.870207   -6.520797 H    1411 MOH     0.0372 ****
8772 O1     21.082349  -17.650778   -7.275987 O    1411 MOH    -0.6497 ****
8773 HO1    20.396457  -17.409503   -7.901777 H    1411 MOH     0.4215 ****
8774 HC1    14.888536  -10.723621  -15.725913 H    1412 MOH     0.0372 ****
8775 C1     13.980941  -10.343950  -16.195432 C    1412 MOH     0.1166 ****
8776 HC2    14.111422  -10.363955  -17.278013 H    1412 MOH     0.0372 ****
8777 HC3    13.837758   -9.313123  -15.873699 H    1412 MOH     0.0372 ****
8778 O1     12.840674  -11.137177  -15.821373 O    1412 MOH    -0.6497 ****
8779 HO1    12.067602  -10.632174  -16.083709 H    1412 MOH     0.4215 ****
8780 HC1     7.770384  -30.900477  -15.720963 H    1413 MOH     0.0372 ****
8781 C1      8.414130  -30.116232  -16.117650 C    1413 MOH     0.1166 ****
8782 HC2     8.448193  -29.314840  -15.380138 H    1413 MOH     0.0372 ****
8783 HC3     8.015181  -29.676140  -17.032646 H    1413 MOH     0.0372 ****
8784 O1      9.725870  -30.580818  -16.348167 O    1413 MOH    -0.6497 ****
8785 HO1    10.168120  -29.793715  -16.673436 H    1413 MOH     0.4215 ****
8786 HC1    17.046094  -19.193548   -9.214167 H    1414 MOH     0.0372 ****
8787 C1     17.628063  -18.951049  -10.103707 C    1414 MOH     0.1166 ****
8788 HC2    17.591690  -19.772853  -10.818592 H    1414 MOH     0.0372 ****
8789 HC3    18.655169  -18.807754   -9.766417 H    1414 MOH     0.0372 ****
8790 O1     17.162141  -17.706708  -10.635451 O    1414 MOH    -0.6497 ****
8791 HO1    17.577833  -17.029424  -10.097343 H    1414 MOH     0.4215 ****
8792 HC1    14.540393  -23.759806  -11.542669 H    1415 MOH     0.0372 ****
8793 C1     14.703206  -23.983934  -10.488373 C    1415 MOH     0.1166 ****
8794 HC2    15.270742  -24.910658  -10.396449 H    1415 MOH     0.0372 ****
8795 HC3    13.719401  -24.101509  -10.034411 H    1415 MOH     0.0372 ****
8796 O1     15.396027  -22.907383   -9.896525 O    1415 MOH    -0.6497 ****
8797 HO1    16.234339  -22.816752  -10.354730 H    1415 MOH     0.4215 ****
8798 HC1    12.475789  -29.825967   -6.783134 H    1416 MOH     0.0372 ****
8799 C1     12.082613  -29.391183   -5.864602 C    1416 MOH     0.1166 ****
8800 HC2    11.898439  -28.326471   -6.006023 H    1416 MOH     0.0372 ****
8801 HC3    12.781784  -29.535294   -5.040823 H    1416 MOH     0.0372 ****
8802 O1     10.918098  -30.052136   -5.535797 O    1416 MOH    -0.6497 ****
8803 HO1    10.493745  -29.602655   -4.801113 H    1416 MOH     0.4215 ****
8804 HC1    14.262688  -23.864726  -20.878600 H    1417 MOH     0.0372 ****
8805 C1     14.129320  -24.887387  -21.231446 C    1417 MOH     0.1166 ****
8806 HC2    13.130504  -24.964955  -21.659953 H    1417 MOH     0.0372 ****
8807 HC3    14.202644  -25.604271  -20.414031 H    1417 MOH     0.0372 ****
8808 O1     15.049616  -25.164588  -22.243316 O    1417 MOH    -0.6497 ****
8809 HO1    15.165664  -26.112541  -22.335240 H    1417 MOH     0.4215 ****
8810 HC1    17.398277  -16.584025  -21.568736 H    1418 MOH     0.0372 ****
8811 C1     16.550727  -17.248654  -21.399031 C    1418 MOH     0.1166 ****
8812 HC2    15.685279  -16.604846  -21.242760 H    1418 MOH     0.0372 ****
8813 HC3    16.783399  -17.850412  -20.520804 H    1418 MOH     0.0372 ****
8814 O1     16.417359  -17.950433  -22.614547 O    1418 MOH    -0.6497 ****
8815 HO1    17.263177  -18.356231  -22.819608 H    1418 MOH     0.4215 ****
8816 HC1    18.815672  -21.201722   -6.987487 H    1419 MOH     0.0372 ****
8817 C1     18.879181  -22.124771   -7.563779 C    1419 MOH     0.1166 ****
8818 HC2    19.910906  -22.328895   -7.849451 H    1419 MOH     0.0372 ****
8819 HC3    18.261993  -22.012911   -8.454734 H    1419 MOH     0.0372 ****
8820 O1     18.361297  -23.178052   -6.798690 O    1419 MOH    -0.6497 ****
8821 HO1    18.611290  -24.002713   -7.222954 H    1419 MOH     0.4215 ****
8822 HC1     6.764640  -21.894111  -15.469941 H    1420 MOH     0.0372 ****
8823 C1      6.598363  -20.823684  -15.351147 C    1420 MOH     0.1166 ****
8824 HC2     6.951702  -20.502801  -14.371097 H    1420 MOH     0.0372 ****
8825 HC3     5.531420  -20.610578  -15.423271 H    1420 MOH     0.0372 ****
8826 O1      7.285410  -20.109249  -16.360895 O    1420 MOH    -0.6497 ****
8827 HO1     7.194766  -20.639156  -17.155683 H    1420 MOH     0.4215 ****
8828 HC1    13.427840  -15.578102  -18.318874 H    1421 MOH     0.0372 ****
8829 C1     14.299061  -16.233340  -18.337966 C    1421 MOH     0.1166 ****
8830 HC2    14.298484  -16.804888  -19.265690 H    1421 MOH     0.0372 ****
8831 HC3    14.271348  -16.942467  -17.509944 H    1421 MOH     0.0372 ****
8832 O1     15.477433  -15.448687  -18.264426 O    1421 MOH    -0.6497 ****
8833 HO1    15.447988  -14.937968  -17.451961 H    1421 MOH     0.4215 ****
8834 HC1     9.242627  -22.343184  -15.793795 H    1422 MOH     0.0372 ****
8835 C1      9.509941  -23.347883  -15.464991 C    1422 MOH     0.1166 ****
8836 HC2    10.454486  -23.637331  -15.925317 H    1422 MOH     0.0372 ****
8837 HC3     8.747261  -24.061501  -15.774704 H    1422 MOH     0.0372 ****
8838 O1      9.677372  -23.340126  -14.035928 O    1422 MOH    -0.6497 ****
8839 HO1     8.848874  -23.152332  -13.589036 H    1422 MOH     0.4215 ****
8840 HC1    26.377229  -22.527712   -8.431399 H    1423 MOH     0.0372 ****
8841 C1     27.235748  -22.166004   -8.997085 C    1423 MOH     0.1166 ****
8842 HC2    26.887606  -21.646712   -9.889454 H    1423 MOH     0.0372 ****
8843 HC3    27.865060  -23.006588   -9.290534 H    1423 MOH     0.0372 ****
8844 O1     27.985149  -21.276431   -8.201590 O    1423 MOH    -0.6497 ****
8845 HO1    28.152581  -21.694886   -7.353769 H    1423 MOH     0.4215 ****
8846 HC1    27.176281  -21.206621  -18.363421 H    1424 MOH     0.0372 ****
8847 C1     26.729412  -20.792657  -19.267104 C    1424 MOH     0.1166 ****
8848 HC2    25.701729  -20.473815  -19.095277 H    1424 MOH     0.0372 ****
8849 HC3    26.760012  -21.565063  -20.036436 H    1424 MOH     0.0372 ****
8850 O1     27.540012  -19.728354  -19.655305 O    1424 MOH    -0.6497 ****
8851 HO1    27.721877  -19.182118  -18.887387 H    1424 MOH     0.4215 ****
8852 HC1    20.402231  -23.458927  -23.769253 H    1425 MOH     0.0372 ****
8853 C1     19.477893  -22.943717  -24.030882 C    1425 MOH     0.1166 ****
8854 HC2    18.764865  -22.990666  -23.207103 H    1425 MOH     0.0372 ****
8855 HC3    19.041994  -23.389933  -24.923958 H    1425 MOH     0.0372 ****
8856 O1     19.715761  -21.594457  -24.310189 O    1425 MOH    -0.6497 ****
8857 HO1    20.220366  -21.564246  -25.126191 H    1425 MOH     0.4215 ****
8858 HC1    12.124183  -16.265592  -13.717023 H    1426 MOH     0.0372 ****
8859 C1     11.753524  -16.662409  -12.772328 C    1426 MOH     0.1166 ****
8860 HC2    12.608002  -16.785292  -12.106941 H    1426 MOH     0.0372 ****
8861 HC3    11.281829  -17.638123  -12.888294 H    1426 MOH     0.0372 ****
8862 O1     10.898468  -15.727112  -12.210178 O    1426 MOH    -0.6497 ****
8863 HO1    11.083220  -15.725479  -11.268312 H    1426 MOH     0.4215 ****
8864 HC1    11.412310  -20.940443   -7.978851 H    1427 MOH     0.0372 ****
8865 C1     11.345914  -21.200905   -6.922434 C    1427 MOH     0.1166 ****
8866 HC2    11.453879  -22.279089   -6.798690 H    1427 MOH     0.0372 ****
8867 HC3    10.362109  -20.886146   -6.573830 H    1427 MOH     0.0372 ****
8868 O1     12.329719  -20.481980   -6.199063 O    1427 MOH    -0.6497 ****
8869 HO1    13.152443  -20.590982   -6.682017 H    1427 MOH     0.4215 ****
8870 HC1    18.958855  -18.379501   -3.130220 H    1428 MOH     0.0372 ****
8871 C1     19.396486  -19.282955   -3.555191 C    1428 MOH     0.1166 ****
8872 HC2    19.640128  -19.087812   -4.598881 H    1428 MOH     0.0372 ****
8873 HC3    18.690964  -20.109249   -3.461853 H    1428 MOH     0.0372 ****
8874 O1     20.532712  -19.580568   -2.807779 O    1428 MOH    -0.6497 ****
8875 HO1    21.160292  -18.854702   -2.855863 H    1428 MOH     0.4215 ****
8876 HC1    15.738973  -25.577327   -3.763081 H    1429 MOH     0.0372 ****
8877 C1     15.328476  -26.533853   -3.439933 C    1429 MOH     0.1166 ****
8878 HC2    16.107322  -27.296461   -3.418720 H    1429 MOH     0.0372 ****
8879 HC3    14.543280  -26.812686   -4.142090 H    1429 MOH     0.0372 ****
8880 O1     14.732651  -26.389333   -2.184111 O    1429 MOH    -0.6497 ****
8881 HO1    15.353303  -25.940260   -1.605698 H    1429 MOH     0.4215 ****
8882 HC1    12.121873  -14.851828  -16.792230 H    1430 MOH     0.0372 ****
8883 C1     12.688254  -14.546866  -15.911882 C    1430 MOH     0.1166 ****
8884 HC2    13.073924  -15.440522  -15.420443 H    1430 MOH     0.0372 ****
8885 HC3    12.034116  -14.023084  -15.215382 H    1430 MOH     0.0372 ****
8886 O1     13.782910  -13.732411  -16.317054 O    1430 MOH    -0.6497 ****
8887 HO1    13.431881  -12.857127  -16.493831 H    1430 MOH     0.4215 ****
8888 HC1     4.038392  -24.256644  -17.395392 H    1431 MOH     0.0372 ****
8889 C1      4.597267  -23.624267  -16.705963 C    1431 MOH     0.1166 ****
8890 HC2     4.642300  -22.623651  -17.136591 H    1431 MOH     0.0372 ****
8891 HC3     5.610517  -24.018635  -16.625353 H    1431 MOH     0.0372 ****
8892 O1      3.932160  -23.612020  -15.417615 O    1431 MOH    -0.6497 ****
8893 HO1     4.399236  -24.230108  -14.851929 H    1431 MOH     0.4215 ****
8894 HC1    12.513317  -30.469775  -19.496206 H    1432 MOH     0.0372 ****
8895 C1     11.631126  -29.886388  -19.235284 C    1432 MOH     0.1166 ****
8896 HC2    11.935389  -28.887812  -18.924157 H    1432 MOH     0.0372 ****
8897 HC3    11.095922  -30.376286  -18.422111 H    1432 MOH     0.0372 ****
8898 O1     10.810133  -29.831274  -20.402717 O    1432 MOH    -0.6497 ****
8899 HO1    10.719489  -30.720031  -20.755564 H    1432 MOH     0.4215 ****
8900 HC1    14.243635  -28.606938  -14.429786 H    1433 MOH     0.0372 ****
8901 C1     13.931866  -27.563455  -14.465142 C    1433 MOH     0.1166 ****
8902 HC2    14.737847  -26.906175  -14.137044 H    1433 MOH     0.0372 ****
8903 HC3    13.088935  -27.440164  -13.786319 H    1433 MOH     0.0372 ****
8904 O1     13.478646  -27.217260  -15.759147 O    1433 MOH    -0.6497 ****
8905 HO1    13.267336  -26.281555  -15.729449 H    1433 MOH     0.4215 ****
8906 HC1    20.939744  -20.593432   -6.932333 H    1434 MOH     0.0372 ****
8907 C1     21.865236  -20.293778   -6.438773 C    1434 MOH     0.1166 ****
8908 HC2    22.309219  -21.147833   -5.926827 H    1434 MOH     0.0372 ****
8909 HC3    21.619285  -19.541784   -5.689239 H    1434 MOH     0.0372 ****
8910 O1     22.747427  -19.794490   -7.464785 O    1434 MOH    -0.6497 ****
8911 HO1    22.556902  -18.856335   -7.539738 H    1434 MOH     0.4215 ****
8912 HC1     9.968934  -29.436090  -13.613078 H    1435 MOH     0.0372 ****
8913 C1     10.740274  -29.729212  -12.900314 C    1435 MOH     0.1166 ****
8914 HC2    11.638054  -29.985592  -13.463171 H    1435 MOH     0.0372 ****
8915 HC3    10.410030  -30.617560  -12.361499 H    1435 MOH     0.0372 ****
8916 O1     11.000659  -28.651845  -11.991682 O    1435 MOH    -0.6497 ****
8917 HO1    10.334397  -28.676748  -11.300839 H    1435 MOH     0.4215 ****
8918 HC1     9.839608  -28.825350   -7.729950 H    1436 MOH     0.0372 ****
8919 C1     10.322850  -28.975994   -8.695150 C    1436 MOH     0.1166 ****
8920 HC2    10.778379  -29.965588   -8.714949 H    1436 MOH     0.0372 ****
8921 HC3    11.083220  -28.206854   -8.833743 H    1436 MOH     0.0372 ****
8922 O1      9.291702  -28.926596   -9.681564 O    1436 MOH    -0.6497 ****
8923 HO1     8.779015  -28.125613   -9.551457 H    1436 MOH     0.4215 ****
8924 HC1     5.539503  -27.397706  -14.063505 H    1437 MOH     0.0372 ****
8925 C1      6.127245  -26.482005  -14.001987 C    1437 MOH     0.1166 ****
8926 HC2     6.593167  -26.271349  -14.965066 H    1437 MOH     0.0372 ****
8927 HC3     6.915906  -26.630608  -13.265182 H    1437 MOH     0.0372 ****
8928 O1      5.345513  -25.357281  -13.626513 O    1437 MOH    -0.6497 ****
8929 HO1     4.945409  -25.521397  -12.769500 H    1437 MOH     0.4215 ****
8930 HC1    19.356649  -16.724463  -11.584389 H    1438 MOH     0.0372 ****
8931 C1     20.302349  -16.381534  -11.164367 C    1438 MOH     0.1166 ****
8932 HC2    20.188611  -15.407046  -10.688484 H    1438 MOH     0.0372 ****
8933 HC3    21.032120  -16.268041  -11.966226 H    1438 MOH     0.0372 ****
8934 O1     20.744022  -17.303767  -10.192095 O    1438 MOH    -0.6497 ****
8935 HO1    21.575406  -17.692011  -10.474231 H    1438 MOH     0.4215 ****
8936 HC1    19.274666  -24.790224  -16.513630 H    1439 MOH     0.0372 ****
8937 C1     20.056398  -24.117023  -16.865062 C    1439 MOH     0.1166 ****
8938 HC2    20.615850  -24.551807  -17.693084 H    1439 MOH     0.0372 ****
8939 HC3    20.741713  -23.912082  -16.043404 H    1439 MOH     0.0372 ****
8940 O1     19.482512  -22.917589  -17.310539 O    1439 MOH    -0.6497 ****
8941 HO1    19.677656  -22.274190  -16.624646 H    1439 MOH     0.4215 ****
8942 HC1    24.174522   -2.049325  -16.242101 H    1440 MOH     0.0372 ****
8943 C1     23.138178   -1.910520  -15.935217 C    1440 MOH     0.1166 ****
8944 HC2    22.574684   -1.546363  -16.793644 H    1440 MOH     0.0372 ****
8945 HC3    23.068319   -1.160568  -15.146793 H    1440 MOH     0.0372 ****
8946 O1     22.612789   -3.153228  -15.518024 O    1440 MOH    -0.6497 ****
8947 HO1    21.850110   -3.000952  -14.955874 H    1440 MOH     0.4215 ****
8948 HC1    18.672951  -12.590296  -12.150781 H    1441 MOH     0.0372 ****
8949 C1     17.872166  -12.984255  -11.524992 C    1441 MOH     0.1166 ****
8950 HC2    17.306363  -13.714612  -12.104112 H    1441 MOH     0.0372 ****
8951 HC3    17.199553  -12.207359  -11.163660 H    1441 MOH     0.0372 ****
8952 O1     18.369265  -13.725226  -10.480595 O    1441 MOH    -0.6497 ****
8953 HO1    18.913706  -13.129183   -9.961579 H    1441 MOH     0.4215 ****
8954 HC1    30.782296  -11.351262   -7.644390 H    1442 MOH     0.0372 ****
8955 C1     30.843495  -10.571508   -6.886371 C    1442 MOH     0.1166 ****
8956 HC2    31.203761  -11.017315   -5.958647 H    1442 MOH     0.0372 ****
8957 HC3    29.850452  -10.146113   -6.740707 H    1442 MOH     0.0372 ****
8958 O1     31.714716   -9.548846   -7.314171 O    1442 MOH    -0.6497 ****
8959 HO1    32.601526   -9.908921   -7.380639 H    1442 MOH     0.4215 ****
8960 HC1    33.033962  -16.983864  -14.420594 H    1443 MOH     0.0372 ****
8961 C1     32.185257  -16.549079  -13.892385 C    1443 MOH     0.1166 ****
8962 HC2    32.049002  -15.521927  -14.230382 H    1443 MOH     0.0372 ****
8963 HC3    32.349802  -16.561327  -12.814754 H    1443 MOH     0.0372 ****
8964 O1     31.019587  -17.247184  -14.226139 O    1443 MOH    -0.6497 ****
8965 HO1    31.046722  -18.047759  -13.696517 H    1443 MOH     0.4215 ****
8966 HC1    25.224145   -3.500648  -11.573075 H    1444 MOH     0.0372 ****
8967 C1     25.828053   -2.949104  -10.852533 C    1444 MOH     0.1166 ****
8968 HC2    26.639808   -3.584338  -10.498980 H    1444 MOH     0.0372 ****
8969 HC3    25.179689   -2.663330  -10.023804 H    1444 MOH     0.0372 ****
8970 O1     26.332657   -1.825197  -11.508021 O    1444 MOH    -0.6497 ****
8971 HO1    27.145566   -1.563509  -11.068908 H    1444 MOH     0.4215 ****
8972 HC1    23.285980   -8.822164   -7.188306 H    1445 MOH     0.0372 ****
8973 C1     22.265802   -9.114878   -6.940111 C    1445 MOH     0.1166 ****
8974 HC2    22.104721   -9.057315   -5.864602 H    1445 MOH     0.0372 ****
8975 HC3    22.057378  -10.137132   -7.256895 H    1445 MOH     0.0372 ****
8976 O1     21.379569   -8.222447   -7.541152 O    1445 MOH    -0.6497 ****
8977 HO1    21.831057   -7.846042   -8.300585 H    1445 MOH     0.4215 ****
8978 HC1    27.083213   -4.873995  -22.084924 H    1446 MOH     0.0372 ****
8979 C1     27.128823   -5.328783  -23.074874 C    1446 MOH     0.1166 ****
8980 HC2    28.046233   -5.907680  -23.183768 H    1446 MOH     0.0372 ****
8981 HC3    27.118431   -4.551070  -23.837842 H    1446 MOH     0.0372 ****
8982 O1     26.025507   -6.165284  -23.291956 O    1446 MOH    -0.6497 ****
8983 HO1    26.284737   -7.052816  -23.034569 H    1446 MOH     0.4215 ****
8984 HC1    17.884868   -6.035461  -10.984055 H    1447 MOH     0.0372 ****
8985 C1     18.925253   -6.008109  -11.310031 C    1447 MOH     0.1166 ****
8986 HC2    19.509532   -6.647834  -10.647472 H    1447 MOH     0.0372 ****
8987 HC3    19.266467   -4.974424  -11.256291 H    1447 MOH     0.0372 ****
8988 O1     18.992226   -6.490250  -12.633028 O    1447 MOH    -0.6497 ****
8989 HO1    18.397555   -7.243060  -12.676869 H    1447 MOH     0.4215 ****
8990 HC1    20.765269  -10.717661  -15.143964 H    1448 MOH     0.0372 ****
8991 C1     21.679791  -10.411475  -15.651667 C    1448 MOH     0.1166 ****
8992 HC2    22.275040   -9.757053  -15.014564 H    1448 MOH     0.0372 ****
8993 HC3    21.404395   -9.865238  -16.553935 H    1448 MOH     0.0372 ****
8994 O1     22.381849  -11.550896  -16.049768 O    1448 MOH    -0.6497 ****
8995 HO1    23.316579  -11.352079  -15.959965 H    1448 MOH     0.4215 ****
8996 HC1    17.711086  -11.055282  -19.999667 H    1449 MOH     0.0372 ****
8997 C1     17.753810  -10.813599  -18.937592 C    1449 MOH     0.1166 ****
8998 HC2    18.790731  -10.875653  -18.606666 H    1449 MOH     0.0372 ****
8999 HC3    17.156252  -11.515378  -18.355643 H    1449 MOH     0.0372 ****
9000 O1     17.320220   -9.519860  -18.668184 O    1449 MOH    -0.6497 ****
9001 HO1    16.550612   -9.328392  -19.209121 H    1449 MOH     0.4215 ****
9002 HC1    15.107813   -7.117727  -12.284424 H    1450 MOH     0.0372 ****
9003 C1     14.673069   -8.003218  -11.821270 C    1450 MOH     0.1166 ****
9004 HC2    14.260840   -8.678052  -12.571510 H    1450 MOH     0.0372 ****
9005 HC3    13.850922   -7.717036  -11.164367 H    1450 MOH     0.0372 ****
9006 O1     15.578354   -8.705813  -11.025774 O    1450 MOH    -0.6497 ****
9007 HO1    15.051810   -9.423514  -10.665150 H    1450 MOH     0.4215 ****
9008 HC1    28.696907   -1.559427  -14.515346 H    1451 MOH     0.0372 ****
9009 C1     28.031222   -0.700473  -14.430493 C    1451 MOH     0.1166 ****
9010 HC2    26.989104   -1.020539  -14.437565 H    1451 MOH     0.0372 ****
9011 HC3    28.166322   -0.075853  -15.312963 H    1451 MOH     0.0372 ****
9012 O1     28.256966    0.096428  -13.226998 O    1451 MOH    -0.6497 ****
9013 HO1    28.184220   -0.470629  -12.456958 H    1451 MOH     0.4215 ****
9014 HC1    28.771385  -12.213482   -5.565496 H    1452 MOH     0.0372 ****
9015 C1     29.071029  -13.260639   -5.580345 C    1452 MOH     0.1166 ****
9016 HC2    29.704960  -13.449250   -6.447258 H    1452 MOH     0.0372 ****
9017 HC3    28.203272  -13.914653   -5.659541 H    1452 MOH     0.0372 ****
9018 O1     29.775974  -13.571725   -4.386749 O    1452 MOH    -0.6497 ****
9019 HO1    30.210142  -14.420064   -4.505543 H    1452 MOH     0.4215 ****
9020 HC1    21.020457   -8.945863  -19.612879 H    1453 MOH     0.0372 ****
9021 C1     20.480058   -8.076294  -19.986232 C    1453 MOH     0.1166 ****
9022 HC2    20.036653   -8.405751  -20.925976 H    1453 MOH     0.0372 ****
9023 HC3    21.202900   -7.273270  -20.132603 H    1453 MOH     0.0372 ****
9024 O1     19.488747   -7.737857  -18.992746 O    1453 MOH    -0.6497 ****
9025 HO1    18.853085   -8.451883  -18.910015 H    1453 MOH     0.4215 ****
9026 HC1    19.463921  -15.717886  -23.921988 H    1454 MOH     0.0372 ****
9027 C1     19.876727  -14.710329  -23.958757 C    1454 MOH     0.1166 ****
9028 HC2    19.791279  -14.239619  -22.979414 H    1454 MOH     0.0372 ****
9029 HC3    19.299954  -14.122452  -24.672935 H    1454 MOH     0.0372 ****
9030 O1     21.216179  -14.765851  -24.390092 O    1454 MOH    -0.6497 ****
9031 HO1    21.249666  -15.426397  -25.085886 H    1454 MOH     0.4215 ****
9032 HC1    25.637527    2.694520  -11.781672 H    1455 MOH     0.0372 ****
9033 C1     25.183153    2.992542  -12.726366 C    1455 MOH     0.1166 ****
9034 HC2    24.102353    2.857820  -12.678283 H    1455 MOH     0.0372 ****
9035 HC3    25.605773    2.367922  -13.514083 H    1455 MOH     0.0372 ****
9036 O1     25.464900    4.349967  -12.985874 O    1455 MOH    -0.6497 ****
9037 HO1    25.195277    4.544293  -13.886728 H    1455 MOH     0.4215 ****
9038 HC1    26.678490    5.608188   -8.658381 H    1456 MOH     0.0372 ****
9039 C1     26.336699    4.938661   -9.447512 C    1456 MOH     0.1166 ****
9040 HC2    25.838445    4.062560   -9.031733 H    1456 MOH     0.0372 ****
9041 HC3    27.209075    4.620636  -10.018147 H    1456 MOH     0.0372 ****
9042 O1     25.555544    5.668609  -10.369579 O    1456 MOH    -0.6497 ****
9043 HO1    25.582679    5.181569  -11.196187 H    1456 MOH     0.4215 ****
9044 HC1    29.445153  -11.097740  -12.989410 H    1457 MOH     0.0372 ****
9045 C1     29.304856  -11.252058  -14.058555 C    1457 MOH     0.1166 ****
9046 HC2    29.108557  -10.297573  -14.547873 H    1457 MOH     0.0372 ****
9047 HC3    28.470585  -11.930975  -14.234625 H    1457 MOH     0.0372 ****
9048 O1     30.480342  -11.806459  -14.610099 O    1457 MOH    -0.6497 ****
9049 HO1    31.126974  -11.907296  -13.907941 H    1457 MOH     0.4215 ****
9050 HC1    26.901347  -11.303905  -20.358170 H    1458 MOH     0.0372 ****
9051 C1     26.740267  -12.316769  -19.989767 C    1458 MOH     0.1166 ****
9052 HC2    25.989134  -12.271862  -19.202050 H    1458 MOH     0.0372 ****
9053 HC3    27.665182  -12.717261  -19.574695 H    1458 MOH     0.0372 ****
9054 O1     26.288779  -13.163476  -21.046184 O    1458 MOH    -0.6497 ****
9055 HO1    26.693501  -14.021614  -20.896278 H    1458 MOH     0.4215 ****
9056 HC1    30.702621    1.740036  -20.571009 H    1459 MOH     0.0372 ****
9057 C1     30.121807    2.121340  -19.730966 C    1459 MOH     0.1166 ****
9058 HC2    30.419142    3.128488  -19.438931 H    1459 MOH     0.0372 ****
9059 HC3    30.329653    1.466101  -18.884559 H    1459 MOH     0.0372 ****
9060 O1     28.742517    2.077657  -20.015930 O    1459 MOH    -0.6497 ****
9061 HO1    28.337217    1.402823  -19.466508 H    1459 MOH     0.4215 ****
9062 HC1    19.280324   -8.616815   -9.545093 H    1460 MOH     0.0372 ****
9063 C1     18.888880   -9.385955  -10.209773 C    1460 MOH     0.1166 ****
9064 HC2    19.388288   -9.352070  -11.177802 H    1460 MOH     0.0372 ****
9065 HC3    17.817318   -9.223472  -10.334224 H    1460 MOH     0.0372 ****
9066 O1     19.029754  -10.652749   -9.624996 O    1460 MOH    -0.6497 ****
9067 HO1    18.583462  -10.653158   -8.775761 H    1460 MOH     0.4215 ****
9068 HC1    29.635101   -7.257757  -14.793946 H    1461 MOH     0.0372 ****
9069 C1     28.571622   -7.056898  -14.925468 C    1461 MOH     0.1166 ****
9070 HC2    27.989653   -7.977907  -14.898598 H    1461 MOH     0.0372 ****
9071 HC3    28.406499   -6.586188  -15.894912 H    1461 MOH     0.0372 ****
9072 O1     28.121288   -6.166509  -13.946125 O    1461 MOH    -0.6497 ****
9073 HO1    28.231562   -5.272037  -14.276344 H    1461 MOH     0.4215 ****
9074 HC1    29.115486  -15.586022  -12.386955 H    1462 MOH     0.0372 ****
9075 C1     28.929579  -15.000185  -13.287102 C    1462 MOH     0.1166 ****
9076 HC2    28.947477  -15.623989  -14.180885 H    1462 MOH     0.0372 ****
9077 HC3    29.677247  -14.214716  -13.395996 H    1462 MOH     0.0372 ****
9078 O1     27.687121  -14.411900  -13.157701 O    1462 MOH    -0.6497 ****
9079 HO1    27.388631  -14.301264  -14.063505 H    1462 MOH     0.4215 ****
9080 HC1    30.300208  -12.010991  -10.967791 H    1463 MOH     0.0372 ****
9081 C1     31.054228  -12.764618  -11.195480 C    1463 MOH     0.1166 ****
9082 HC2    30.568099  -13.654191  -11.594995 H    1463 MOH     0.0372 ****
9083 HC3    31.543243  -13.054066  -10.265634 H    1463 MOH     0.0372 ****
9084 O1     31.988380  -12.222464  -12.140175 O    1463 MOH    -0.6497 ****
9085 HO1    32.204887  -11.324726  -11.880666 H    1463 MOH     0.4215 ****
9086 HC1    28.545641   -3.658231  -20.054114 H    1464 MOH     0.0372 ****
9087 C1     28.308350   -3.944822  -19.028809 C    1464 MOH     0.1166 ****
9088 HC2    29.070452   -4.607409  -18.619394 H    1464 MOH     0.0372 ****
9089 HC3    27.355145   -4.473503  -19.047901 H    1464 MOH     0.0372 ****
9090 O1     28.206736   -2.818465  -18.190887 O    1464 MOH    -0.6497 ****
9091 HO1    28.980386   -2.262022  -18.310388 H    1464 MOH     0.4215 ****
9092 HC1    26.236817  -18.640535  -13.702173 H    1465 MOH     0.0372 ****
9093 C1     25.829785  -17.639919  -13.847130 C    1465 MOH     0.1166 ****
9094 HC2    24.784204  -17.685643  -14.152600 H    1465 MOH     0.0372 ****
9095 HC3    26.386351  -17.182272  -14.663839 H    1465 MOH     0.0372 ****
9096 O1     25.984515  -16.816074  -12.690304 O    1465 MOH    -0.6497 ****
9097 HO1    26.267417  -15.935890  -12.950519 H    1465 MOH     0.4215 ****
9098 HC1    25.642724  -14.235128  -11.479737 H    1466 MOH     0.0372 ****
9099 C1     25.731058  -13.249208  -11.023653 C    1466 MOH     0.1166 ****
9100 HC2    25.130037  -13.217365  -10.115728 H    1466 MOH     0.0372 ****
9101 HC3    25.378875  -12.513953  -11.747023 H    1466 MOH     0.0372 ****
9102 O1     27.071088  -13.045493  -10.716062 O    1466 MOH    -0.6497 ****
9103 HO1    27.556062  -13.512120  -11.399834 H    1466 MOH     0.4215 ****
9104 HC1    29.938787   -0.135049   -6.681310 H    1467 MOH     0.0372 ****
9105 C1     29.896063    0.739011   -7.331141 C    1467 MOH     0.1166 ****
9106 HC2    30.696848    1.439157   -7.092846 H    1467 MOH     0.0372 ****
9107 HC3    28.956714    1.255037   -7.135980 H    1467 MOH     0.0372 ****
9108 O1     29.896640    0.384651   -8.722728 O    1467 MOH    -0.6497 ****
9109 HO1    30.005760    1.177061   -9.253765 H    1467 MOH     0.4215 ****
9110 HC1    27.606292  -19.072462  -10.665857 H    1468 MOH     0.0372 ****
9111 C1     28.682473  -19.064297  -10.835562 C    1468 MOH     0.1166 ****
9112 HC2    29.102784  -18.204118  -10.315839 H    1468 MOH     0.0372 ****
9113 HC3    28.886277  -19.003876  -11.904708 H    1468 MOH     0.0372 ****
9114 O1     29.275989  -20.209025  -10.334931 O    1468 MOH    -0.6497 ****
9115 HO1    28.814109  -20.470304   -9.535900 H    1468 MOH     0.4215 ****
9116 HC1    24.252464   -4.404509  -18.067144 H    1469 MOH     0.0372 ****
9117 C1     23.669918   -5.277344  -17.771573 C    1469 MOH     0.1166 ****
9118 HC2    24.005936   -6.192229  -18.258770 H    1469 MOH     0.0372 ****
9119 HC3    22.649740   -5.097307  -18.108863 H    1469 MOH     0.0372 ****
9120 O1     23.662990   -5.424313  -16.368673 O    1469 MOH    -0.6497 ****
9121 HO1    23.476505   -4.562501  -15.987543 H    1469 MOH     0.4215 ****
9122 HC1    23.421657   -7.419015  -13.796219 H    1470 MOH     0.0372 ****
9123 C1     24.453382   -7.702747  -14.001987 C    1470 MOH     0.1166 ****
9124 HC2    24.724159   -8.528633  -13.345085 H    1470 MOH     0.0372 ****
9125 HC3    25.101746   -6.851958  -13.791269 H    1470 MOH     0.0372 ****
9126 O1     24.591369   -8.021997  -15.363874 O    1470 MOH    -0.6497 ****
9127 HO1    24.294611   -7.229179  -15.816423 H    1470 MOH     0.4215 ****
9128 HC1    28.915722   -8.146513  -19.482771 H    1471 MOH     0.0372 ****
9129 C1     28.930156   -7.439019  -20.312208 C    1471 MOH     0.1166 ****
9130 HC2    27.939423   -7.007909  -20.453629 H    1471 MOH     0.0372 ****
9131 HC3    29.269061   -7.932183  -21.222961 H    1471 MOH     0.0372 ****
9132 O1     29.807151   -6.387371  -20.005323 O    1471 MOH    -0.6497 ****
9133 HO1    30.003450   -6.380431  -19.065578 H    1471 MOH     0.4215 ****
9134 HC1    24.772079  -15.893841   -5.604387 H    1472 MOH     0.0372 ****
9135 C1     25.764544  -15.873020   -6.054814 C    1472 MOH     0.1166 ****
9136 HC2    26.287624  -14.961810   -5.764900 H    1472 MOH     0.0372 ****
9137 HC3    25.704500  -15.928542   -7.140930 H    1472 MOH     0.0372 ****
9138 O1     26.499511  -16.937732   -5.606508 O    1472 MOH    -0.6497 ****
9139 HO1    26.052642  -17.733816   -5.902079 H    1472 MOH     0.4215 ****
9140 HC1    22.712094   -3.664355  -12.599087 H    1473 MOH     0.0372 ****
9141 C1     22.472493   -4.297140  -11.744902 C    1473 MOH     0.1166 ****
9142 HC2    21.426912   -4.172624  -11.464181 H    1473 MOH     0.0372 ****
9143 HC3    23.104692   -3.989729  -10.911223 H    1473 MOH     0.0372 ****
9144 O1     22.774448   -5.647217  -12.060979 O    1473 MOH    -0.6497 ****
9145 HO1    22.311990   -5.920335  -12.856474 H    1473 MOH     0.4215 ****
9146 HC1    20.118636  -11.602743  -21.698844 H    1474 MOH     0.0372 ****
9147 C1     20.906719  -11.568450  -22.451206 C    1474 MOH     0.1166 ****
9148 HC2    20.486408  -11.176940  -23.378223 H    1474 MOH     0.0372 ****
9149 HC3    21.304514  -12.566209  -22.637882 H    1474 MOH     0.0372 ****
9150 O1     21.913041  -10.668263  -22.101188 O    1474 MOH    -0.6497 ****
9151 HO1    22.740384  -11.133258  -22.244731 H    1474 MOH     0.4215 ****
9152 HC1    23.322353  -12.223281  -24.416963 H    1475 MOH     0.0372 ****
9153 C1     23.752479  -12.793195  -23.592476 C    1475 MOH     0.1166 ****
9154 HC2    24.527860  -13.437003  -24.007548 H    1475 MOH     0.0372 ****
9155 HC3    23.007120  -13.441902  -23.132150 H    1475 MOH     0.0372 ****
9156 O1     24.321746  -11.898723  -22.652731 O    1475 MOH    -0.6497 ****
9157 HO1    24.736284  -12.438019  -21.976030 H    1475 MOH     0.4215 ****
9158 HC1    33.420209   -8.360435  -20.099368 H    1476 MOH     0.0372 ****
9159 C1     32.483170   -8.104464  -20.592222 C    1476 MOH     0.1166 ****
9160 HC2    31.644857   -8.436369  -19.979160 H    1476 MOH     0.0372 ****
9161 HC3    32.464695   -8.603343  -21.560958 H    1476 MOH     0.0372 ****
9162 O1     32.452570   -6.720910  -20.809304 O    1476 MOH    -0.6497 ****
9163 HO1    31.536315   -6.479635  -20.961332 H    1476 MOH     0.4215 ****
9164 HC1    23.473619   -9.062622  -10.857483 H    1477 MOH     0.0372 ****
9165 C1     22.463833   -8.663355  -10.765559 C    1477 MOH     0.1166 ****
9166 HC2    21.851264   -9.404734  -10.252200 H    1477 MOH     0.0372 ****
9167 HC3    22.062575   -8.471479  -11.761165 H    1477 MOH     0.0372 ****
9168 O1     22.531960   -7.474536  -10.003298 O    1477 MOH    -0.6497 ****
9169 HO1    22.866246   -6.781331  -10.577469 H    1477 MOH     0.4215 ****
9170 HC1    19.217393   -1.826421  -12.433624 H    1478 MOH     0.0372 ****
9171 C1     20.079954   -1.363468  -12.913042 C    1478 MOH     0.1166 ****
9172 HC2    20.866882   -1.248750  -12.167045 H    1478 MOH     0.0372 ****
9173 HC3    19.762989   -0.371424  -13.235483 H    1478 MOH     0.0372 ****
9174 O1     20.462737   -2.150979  -14.071990 O    1478 MOH    -0.6497 ****
9175 HO1    19.768762   -2.104847  -14.733135 H    1478 MOH     0.4215 ****
9176 HC1    25.903686   -6.389004   -6.172900 H    1479 MOH     0.0372 ****
9177 C1     26.511636   -5.518211   -6.421095 C    1479 MOH     0.1166 ****
9178 HC2    27.561259   -5.787654   -6.535646 H    1479 MOH     0.0372 ****
9179 HC3    26.455055   -4.796019   -5.605801 H    1479 MOH     0.0372 ****
9180 O1     26.116728   -4.956053   -7.630955 O    1479 MOH    -0.6497 ****
9181 HO1    26.398475   -5.554545   -8.326748 H    1479 MOH     0.4215 ****
9182 HC1    31.484354   -0.139131  -16.860819 H    1480 MOH     0.0372 ****
9183 C1     30.469372   -0.522476  -16.964764 C    1480 MOH     0.1166 ****
9184 HC2    29.748261    0.294837  -16.943551 H    1480 MOH     0.0372 ****
9185 HC3    30.234390   -1.217315  -16.158662 H    1480 MOH     0.0372 ****
9186 O1     30.341778   -1.234461  -18.147047 O    1480 MOH    -0.6497 ****
9187 HO1    31.062311   -1.867654  -18.178867 H    1480 MOH     0.4215 ****
9188 HC1    24.963182  -14.133066  -15.971279 H    1481 MOH     0.0372 ****
9189 C1     25.819970  -14.391079  -16.594947 C    1481 MOH     0.1166 ****
9190 HC2    26.005877  -13.597853  -17.318318 H    1481 MOH     0.0372 ****
9191 HC3    25.574019  -15.294941  -17.152147 H    1481 MOH     0.0372 ****
9192 O1     26.983331  -14.581731  -15.793795 O    1481 MOH    -0.6497 ****
9193 HO1    27.679615  -14.929558  -16.355238 H    1481 MOH     0.4215 ****
9194 HC1    31.017855  -14.473137  -16.787987 H    1482 MOH     0.0372 ****
9195 C1     30.519601  -15.248809  -17.367815 C    1482 MOH     0.1166 ****
9196 HC2    31.246485  -15.994270  -17.690256 H    1482 MOH     0.0372 ****
9197 HC3    30.057144  -14.774832  -18.234021 H    1482 MOH     0.0372 ****
9198 O1     29.544457  -15.879552  -16.570906 O    1482 MOH    -0.6497 ****
9199 HO1    30.016152  -16.248609  -15.821372 H    1482 MOH     0.4215 ****
9200 HC1    30.342355   -2.774374  -21.081540 H    1483 MOH     0.0372 ****
9201 C1     30.935294   -3.112812  -21.930775 C    1483 MOH     0.1166 ****
9202 HC2    31.302488   -4.108529  -21.682581 H    1483 MOH     0.0372 ****
9203 HC3    31.782267   -2.442876  -22.082803 H    1483 MOH     0.0372 ****
9204 O1     30.131045   -3.163843  -23.101037 O    1483 MOH    -0.6497 ****
9205 HO1    30.538077   -3.814182  -23.678743 H    1483 MOH     0.4215 ****
9206 HC1    26.098830   -2.453491  -15.419029 H    1484 MOH     0.0372 ****
9207 C1     26.280118   -3.491666  -15.139722 C    1484 MOH     0.1166 ****
9208 HC2    25.620784   -4.128942  -15.728742 H    1484 MOH     0.0372 ****
9209 HC3    26.055529   -3.646392  -14.084011 H    1484 MOH     0.0372 ****
9210 O1     27.610333   -3.887259  -15.380845 O    1484 MOH    -0.6497 ****
9211 HO1    27.789889   -3.779073  -16.317761 H    1484 MOH     0.4215 ****
9212 HC1    29.987284   -8.241635  -11.760458 H    1485 MOH     0.0372 ****
9213 C1     30.441082   -7.362268  -11.303667 C    1485 MOH     0.1166 ****
9214 HC2    31.278240   -7.045467  -11.925921 H    1485 MOH     0.0372 ****
9215 HC3    30.744768   -7.611300  -10.286848 H    1485 MOH     0.0372 ****
9216 O1     29.490763   -6.364509  -11.339023 O    1485 MOH    -0.6497 ****
9217 HO1    29.162828   -6.308988  -12.239877 H    1485 MOH     0.4215 ****
9218 HC1    21.820088    3.230959  -14.089668 H    1486 MOH     0.0372 ****
9219 C1     20.912493    3.167272  -13.490042 C    1486 MOH     0.1166 ****
9220 HC2    20.301656    2.320565  -13.802583 H    1486 MOH     0.0372 ****
9221 HC3    20.363433    4.099303  -13.622271 H    1486 MOH     0.0372 ****
9222 O1     21.284306    2.983968  -12.165631 O    1486 MOH    -0.6497 ****
9223 HO1    21.811427    2.181352  -12.167045 H    1486 MOH     0.4215 ****
9224 HC1    29.356818  -10.840544  -19.112955 H    1487 MOH     0.0372 ****
9225 C1     30.284043  -11.017315  -18.569189 C    1487 MOH     0.1166 ****
9226 HC2    30.218225  -11.941997  -17.995726 H    1487 MOH     0.0372 ****
9227 HC3    30.507477  -10.180814  -17.906630 H    1487 MOH     0.0372 ****
9228 O1     31.287477  -11.119377  -19.499742 O    1487 MOH    -0.6497 ****
9229 HO1    32.097500  -10.778490  -19.112954 H    1487 MOH     0.4215 ****
9230 HC1    27.259882  -10.696432  -24.385850 H    1488 MOH     0.0372 ****
9231 C1     27.539897  -11.604784  -23.851984 C    1488 MOH     0.1166 ****
9232 HC2    28.348187  -12.100398  -24.389385 H    1488 MOH     0.0372 ****
9233 HC3    26.709090  -12.310646  -23.828650 H    1488 MOH     0.0372 ****
9234 O1     27.977528  -11.343506  -22.532523 O    1488 MOH    -0.6497 ****
9235 HO1    27.629963  -12.048142  -21.980980 H    1488 MOH     0.4215 ****
9236 HC1    30.950305   -8.994853   -2.499481 H    1489 MOH     0.0372 ****
9237 C1     30.058876   -8.368192   -2.531301 C    1489 MOH     0.1166 ****
9238 HC2    29.170334   -8.998935   -2.571606 H    1489 MOH     0.0372 ****
9239 HC3    30.068113   -7.750104   -3.429326 H    1489 MOH     0.0372 ****
9240 O1     30.069268   -7.520668   -1.409829 O    1489 MOH    -0.6497 ****
9241 HO1    30.825020   -6.940548   -1.526502 H    1489 MOH     0.4215 ****
9242 HC1    31.693932  -21.183922  -12.545347 H    1490 MOH     0.0372 ****
9243 C1     32.275324  -20.426622  -12.018552 C    1490 MOH     0.1166 ****
9244 HC2    33.328988  -20.670754  -12.155731 H    1490 MOH     0.0372 ****
9245 HC3    32.045538  -20.416007  -10.953649 H    1490 MOH     0.0372 ****
9246 O1     32.147152  -19.166359  -12.570803 O    1490 MOH    -0.6497 ****
9247 HO1    32.945627  -18.689933  -12.329679 H    1490 MOH     0.4215 ****
9248 HC1    26.849386   -9.826863   -7.463370 H    1491 MOH     0.0372 ****
9249 C1     27.194641  -10.669896   -8.060876 C    1491 MOH     0.1166 ****
9250 HC2    27.934804  -11.201843   -7.461956 H    1491 MOH     0.0372 ****
9251 HC3    27.636314  -10.284101   -8.979407 H    1491 MOH     0.0372 ****
9252 O1     26.142132  -11.587638   -8.394630 O    1491 MOH    -0.6497 ****
9253 HO1    26.420992  -12.100806   -9.156184 H    1491 MOH     0.4215 ****
9254 HC1    27.368424   -9.162643  -18.917793 H    1492 MOH     0.0372 ****
9255 C1     26.737957   -9.476178  -18.086236 C    1492 MOH     0.1166 ****
9256 HC2    25.761658   -9.788896  -18.456759 H    1492 MOH     0.0372 ****
9257 HC3    26.567639   -8.649067  -17.396099 H    1492 MOH     0.0372 ****
9258 O1     27.340133  -10.530275  -17.390442 O    1492 MOH    -0.6497 ****
9259 HO1    26.689460  -10.884634  -16.780916 H    1492 MOH     0.4215 ****
9260 HC1    30.030586   -4.430229  -15.773996 H    1493 MOH     0.0372 ****
9261 C1     30.687033   -4.154661  -14.948803 C    1493 MOH     0.1166 ****
9262 HC2    30.140282   -4.190587  -14.005522 H    1493 MOH     0.0372 ****
9263 HC3    31.033443   -3.131999  -15.099416 H    1493 MOH     0.0372 ****
9264 O1     31.805938   -5.026680  -14.883749 O    1493 MOH    -0.6497 ****
9265 HO1    32.411001   -4.700081  -14.213412 H    1493 MOH     0.4215 ****
9266 HC1    26.486810    5.678815  -15.725913 H    1494 MOH     0.0372 ****
9267 C1     25.579215    6.058486  -16.195432 C    1494 MOH     0.1166 ****
9268 HC2    25.709696    6.038482  -17.278013 H    1494 MOH     0.0372 ****
9269 HC3    25.436032    7.089313  -15.873699 H    1494 MOH     0.0372 ****
9270 O1     24.438948    5.265260  -15.821373 O    1494 MOH    -0.6497 ****
9271 HO1    23.665876    5.770263  -16.083709 H    1494 MOH     0.4215 ****
9272 HC1    19.368658  -14.498040  -15.720963 H    1495 MOH     0.0372 ****
9273 C1     20.012404  -13.713795  -16.117650 C    1495 MOH     0.1166 ****
9274 HC2    20.046468  -12.912404  -15.380138 H    1495 MOH     0.0372 ****
9275 HC3    19.613455  -13.273703  -17.032646 H    1495 MOH     0.0372 ****
9276 O1     21.324144  -14.178382  -16.348167 O    1495 MOH    -0.6497 ****
9277 HO1    21.766394  -13.391279  -16.673436 H    1495 MOH     0.4215 ****
9278 HC1    28.644368   -2.791112   -9.214167 H    1496 MOH     0.0372 ****
9279 C1     29.226337   -2.548612  -10.103707 C    1496 MOH     0.1166 ****
9280 HC2    29.189964   -3.370416  -10.818592 H    1496 MOH     0.0372 ****
9281 HC3    30.253443   -2.405317   -9.766417 H    1496 MOH     0.0372 ****
9282 O1     28.760415   -1.304272  -10.635451 O    1496 MOH    -0.6497 ****
9283 HO1    29.176107   -0.626988  -10.097343 H    1496 MOH     0.4215 ****
9284 HC1    26.138668   -7.357369  -11.542669 H    1497 MOH     0.0372 ****
9285 C1     26.301480   -7.581497  -10.488373 C    1497 MOH     0.1166 ****
9286 HC2    26.869016   -8.508221  -10.396449 H    1497 MOH     0.0372 ****
9287 HC3    25.317675   -7.699073  -10.034411 H    1497 MOH     0.0372 ****
9288 O1     26.994301   -6.504947   -9.896525 O    1497 MOH    -0.6497 ****
9289 HO1    27.832613   -6.414316  -10.354730 H    1497 MOH     0.4215 ****
9290 HC1    24.074063  -13.423530   -6.783134 H    1498 MOH     0.0372 ****
9291 C1     23.680887  -12.988746   -5.864602 C    1498 MOH     0.1166 ****
9292 HC2    23.496713  -11.924034   -6.006023 H    1498 MOH     0.0372 ****
9293 HC3    24.380059  -13.132858   -5.040823 H    1498 MOH     0.0372 ****
9294 O1     22.516372  -13.649700   -5.535797 O    1498 MOH    -0.6497 ****
9295 HO1    22.092019  -13.200219   -4.801113 H    1498 MOH     0.4215 ****
9296 HC1    25.860962   -7.462289  -20.878600 H    1499 MOH     0.0372 ****
9297 C1     25.727594   -8.484951  -21.231446 C    1499 MOH     0.1166 ****
9298 HC2    24.728778   -8.562518  -21.659953 H    1499 MOH     0.0372 ****
9299 HC3    25.800918   -9.201835  -20.414031 H    1499 MOH     0.0372 ****
9300 O1     26.647891   -8.762152  -22.243316 O    1499 MOH    -0.6497 ****
9301 HO1    26.763938   -9.710104  -22.335240 H    1499 MOH     0.4215 ****
9302 HC1    28.047965  -16.736874  -21.920876 H    1500 MOH     0.0372 ****
9303 C1     27.311266  -16.391087  -21.196091 C    1500 MOH     0.1166 ****
9304 HC2    27.040489  -17.199011  -20.515147 H    1500 MOH     0.0372 ****
9305 HC3    26.402517  -16.091433  -21.716522 H    1500 MOH     0.0372 ****
9306 O1     27.751207  -15.309638  -20.402010 O    1500 MOH    -0.6497 ****
9307 HO1    28.698639  -15.378223  -20.266246 H    1500 MOH     0.4215 ****
9308 HC1    28.996551   -0.181589  -21.568736 H    1501 MOH     0.0372 ****
9309 C1     28.149001   -0.846217  -21.399031 C    1501 MOH     0.1166 ****
9310 HC2    27.283553   -0.202410  -21.242760 H    1501 MOH     0.0372 ****
9311 HC3    28.381673   -1.447975  -20.520804 H    1501 MOH     0.0372 ****
9312 O1     28.015633   -1.547996  -22.614547 O    1501 MOH    -0.6497 ****
9313 HO1    28.861451   -1.953795  -22.819608 H    1501 MOH     0.4215 ****
9314 HC1    26.885181  -18.987546  -16.158662 H    1502 MOH     0.0372 ****
9315 C1     27.920370  -18.683401  -16.314933 C    1502 MOH     0.1166 ****
9316 HC2    28.509268  -19.586038  -16.482517 H    1502 MOH     0.0372 ****
9317 HC3    28.293339  -18.126551  -15.456505 H    1502 MOH     0.0372 ****
9318 O1     27.918061  -17.951821  -17.491559 O    1502 MOH    -0.6497 ****
9319 HO1    28.555456  -17.242693  -17.381957 H    1502 MOH     0.4215 ****
9320 HC1    30.413946   -4.799285   -6.987487 H    1503 MOH     0.0372 ****
9321 C1     30.477455   -5.722335   -7.563779 C    1503 MOH     0.1166 ****
9322 HC2    31.509180   -5.926459   -7.849451 H    1503 MOH     0.0372 ****
9323 HC3    29.860267   -5.610475   -8.454734 H    1503 MOH     0.0372 ****
9324 O1     29.959572   -6.775615   -6.798690 O    1503 MOH    -0.6497 ****
9325 HO1    30.209564   -7.600277   -7.222954 H    1503 MOH     0.4215 ****
9326 HC1    18.362914   -5.491674  -15.469941 H    1504 MOH     0.0372 ****
9327 C1     18.196637   -4.421247  -15.351147 C    1504 MOH     0.1166 ****
9328 HC2    18.549976   -4.100364  -14.371097 H    1504 MOH     0.0372 ****
9329 HC3    17.129694   -4.208142  -15.423271 H    1504 MOH     0.0372 ****
9330 O1     18.883684   -3.706813  -16.360895 O    1504 MOH    -0.6497 ****
9331 HO1    18.793040   -4.236719  -17.155683 H    1504 MOH     0.4215 ****
9332 HC1    25.026114    0.824335  -18.318874 H    1505 MOH     0.0372 ****
9333 C1     25.897335    0.169096  -18.337966 C    1505 MOH     0.1166 ****
9334 HC2    25.896758   -0.402451  -19.265690 H    1505 MOH     0.0372 ****
9335 HC3    25.869622   -0.540031  -17.509944 H    1505 MOH     0.0372 ****
9336 O1     27.075707    0.953750  -18.264426 O    1505 MOH    -0.6497 ****
9337 HO1    27.046262    1.464468  -17.451961 H    1505 MOH     0.4215 ****
9338 HC1    20.840901   -5.940748  -15.793795 H    1506 MOH     0.0372 ****
9339 C1     21.108215   -6.945447  -15.464991 C    1506 MOH     0.1166 ****
9340 HC2    22.052760   -7.234895  -15.925317 H    1506 MOH     0.0372 ****
9341 HC3    20.345535   -7.659065  -15.774704 H    1506 MOH     0.0372 ****
9342 O1     21.275646   -6.937690  -14.035928 O    1506 MOH    -0.6497 ****
9343 HO1    20.447149   -6.749896  -13.589036 H    1506 MOH     0.4215 ****
9344 HC1    32.000505   -7.056490  -23.769253 H    1507 MOH     0.0372 ****
9345 C1     31.076167   -6.541281  -24.030882 C    1507 MOH     0.1166 ****
9346 HC2    30.363140   -6.588229  -23.207103 H    1507 MOH     0.0372 ****
9347 HC3    30.640268   -6.987496  -24.923958 H    1507 MOH     0.0372 ****
9348 O1     31.314035   -5.192020  -24.310189 O    1507 MOH    -0.6497 ****
9349 HO1    31.818640   -5.161810  -25.126191 H    1507 MOH     0.4215 ****
9350 HC1    23.722457    0.136845  -13.717023 H    1508 MOH     0.0372 ****
9351 C1     23.351798   -0.259973  -12.772328 C    1508 MOH     0.1166 ****
9352 HC2    24.206276   -0.382855  -12.106941 H    1508 MOH     0.0372 ****
9353 HC3    22.880103   -1.235686  -12.888294 H    1508 MOH     0.0372 ****
9354 O1     22.496742    0.675324  -12.210178 O    1508 MOH    -0.6497 ****
9355 HO1    22.681494    0.676957  -11.268312 H    1508 MOH     0.4215 ****
9356 HC1    23.606409  -12.917711   -1.565393 H    1509 MOH     0.0372 ****
9357 C1     24.500725  -13.360252   -1.125572 C    1509 MOH     0.1166 ****
9358 HC2    24.566543  -13.087134   -0.072690 H    1509 MOH     0.0372 ****
9359 HC3    25.390999  -12.990379   -1.634689 H    1509 MOH     0.0372 ****
9360 O1     24.449341  -14.772791   -1.241538 O    1509 MOH    -0.6497 ****
9361 HO1    25.354626  -15.081018   -1.153149 H    1509 MOH     0.4215 ****
9362 HC1    22.260029  -17.276170  -23.229730 H    1510 MOH     0.0372 ****
9363 C1     22.773870  -16.967126  -22.319684 C    1510 MOH     0.1166 ****
9364 HC2    23.856979  -16.993254  -22.435649 H    1510 MOH     0.0372 ****
9365 HC3    22.470761  -17.606443  -21.489540 H    1510 MOH     0.0372 ****
9366 O1     22.334507  -15.709721  -22.036841 O    1510 MOH    -0.6497 ****
9367 HO1    22.002530  -15.347605  -22.862035 H    1510 MOH     0.4215 ****
9368 HC1    23.010584   -4.538006   -7.978851 H    1511 MOH     0.0372 ****
9369 C1     22.944188   -4.798469   -6.922434 C    1511 MOH     0.1166 ****
9370 HC2    23.052153   -5.876653   -6.798690 H    1511 MOH     0.0372 ****
9371 HC3    21.960384   -4.483709   -6.573830 H    1511 MOH     0.0372 ****
9372 O1     23.927993   -4.079544   -6.199063 O    1511 MOH    -0.6497 ****
9373 HO1    24.750717   -4.188546   -6.682017 H    1511 MOH     0.4215 ****
9374 HC1    30.557129   -1.977065   -3.130220 H    1512 MOH     0.0372 ****
9375 C1     30.994761   -2.880518   -3.555191 C    1512 MOH     0.1166 ****
9376 HC2    31.238402   -2.685376   -4.598881 H    1512 MOH     0.0372 ****
9377 HC3    30.289239   -3.706813   -3.461853 H    1512 MOH     0.0372 ****
9378 O1     32.130986   -3.178131   -2.807779 O    1512 MOH    -0.6497 ****
9379 HO1    32.758566   -2.452266   -2.855863 H    1512 MOH     0.4215 ****
9380 HC1    27.337247   -9.174890   -3.763081 H    1513 MOH     0.0372 ****
9381 C1     26.926751  -10.131416   -3.439933 C    1513 MOH     0.1166 ****
9382 HC2    27.705596  -10.894024   -3.418720 H    1513 MOH     0.0372 ****
9383 HC3    26.141554  -10.410250   -4.142090 H    1513 MOH     0.0372 ****
9384 O1     26.330925   -9.986896   -2.184111 O    1513 MOH    -0.6497 ****
9385 HO1    26.951577   -9.537823   -1.605698 H    1513 MOH     0.4215 ****
9386 HC1    23.720147    1.550609  -16.792230 H    1514 MOH     0.0372 ****
9387 C1     24.286528    1.855570  -15.911882 C    1514 MOH     0.1166 ****
9388 HC2    24.672198    0.961915  -15.420443 H    1514 MOH     0.0372 ****
9389 HC3    23.632390    2.379353  -15.215382 H    1514 MOH     0.0372 ****
9390 O1     25.381184    2.670025  -16.317054 O    1514 MOH    -0.6497 ****
9391 HO1    25.030155    3.545310  -16.493831 H    1514 MOH     0.4215 ****
9392 HC1    15.636666   -7.854207  -17.395392 H    1515 MOH     0.0372 ****
9393 C1     16.195541   -7.221831  -16.705963 C    1515 MOH     0.1166 ****
9394 HC2    16.240575   -6.221214  -17.136591 H    1515 MOH     0.0372 ****
9395 HC3    17.208791   -7.616199  -16.625353 H    1515 MOH     0.0372 ****
9396 O1     15.530434   -7.209583  -15.417615 O    1515 MOH    -0.6497 ****
9397 HO1    15.997510   -7.827671  -14.851929 H    1515 MOH     0.4215 ****
9398 HC1    24.111591  -14.067338  -19.496206 H    1516 MOH     0.0372 ****
9399 C1     23.229400  -13.483951  -19.235284 C    1516 MOH     0.1166 ****
9400 HC2    23.533663  -12.485376  -18.924157 H    1516 MOH     0.0372 ****
9401 HC3    22.694196  -13.973849  -18.422111 H    1516 MOH     0.0372 ****
9402 O1     22.408408  -13.428838  -20.402717 O    1516 MOH    -0.6497 ****
9403 HO1    22.317764  -14.317594  -20.755564 H    1516 MOH     0.4215 ****
9404 HC1    25.841910  -12.204501  -14.429786 H    1517 MOH     0.0372 ****
9405 C1     25.530140  -11.161018  -14.465142 C    1517 MOH     0.1166 ****
9406 HC2    26.336121  -10.503739  -14.137044 H    1517 MOH     0.0372 ****
9407 HC3    24.687209  -11.037727  -13.786319 H    1517 MOH     0.0372 ****
9408 O1     25.076920  -10.814824  -15.759147 O    1517 MOH    -0.6497 ****
9409 HO1    24.865610   -9.879119  -15.729449 H    1517 MOH     0.4215 ****
9410 HC1    21.567208  -13.033653  -13.613078 H    1518 MOH     0.0372 ****
9411 C1     22.338548  -13.326776  -12.900314 C    1518 MOH     0.1166 ****
9412 HC2    23.236328  -13.583156  -13.463171 H    1518 MOH     0.0372 ****
9413 HC3    22.008304  -14.215124  -12.361499 H    1518 MOH     0.0372 ****
9414 O1     22.598933  -12.249408  -11.991682 O    1518 MOH    -0.6497 ****
9415 HO1    21.932671  -12.274312  -11.300839 H    1518 MOH     0.4215 ****
9416 HC1    21.437882  -12.422914   -7.729950 H    1519 MOH     0.0372 ****
9417 C1     21.921124  -12.573558   -8.695150 C    1519 MOH     0.1166 ****
9418 HC2    22.376653  -13.563151   -8.714949 H    1519 MOH     0.0372 ****
9419 HC3    22.681494  -11.804418   -8.833743 H    1519 MOH     0.0372 ****
9420 O1     20.889976  -12.524159   -9.681564 O    1519 MOH    -0.6497 ****
9421 HO1    20.377289  -11.723176   -9.551457 H    1519 MOH     0.4215 ****
9422 HC1    17.137777  -10.995270  -14.063505 H    1520 MOH     0.0372 ****
9423 C1     17.725519  -10.079569  -14.001987 C    1520 MOH     0.1166 ****
9424 HC2    18.191441   -9.868913  -14.965066 H    1520 MOH     0.0372 ****
9425 HC3    18.514180  -10.228171  -13.265182 H    1520 MOH     0.0372 ****
9426 O1     16.943787   -8.954845  -13.626513 O    1520 MOH    -0.6497 ****
9427 HO1    16.543683   -9.118960  -12.769500 H    1520 MOH     0.4215 ****
9428 HC1    30.954923   -0.322026  -11.584389 H    1521 MOH     0.0372 ****
9429 C1     31.900623    0.020902  -11.164367 C    1521 MOH     0.1166 ****
9430 HC2    31.786885    0.995391  -10.688484 H    1521 MOH     0.0372 ****
9431 HC3    32.630394    0.134395  -11.966226 H    1521 MOH     0.0372 ****
9432 O1     32.342296   -0.901331  -10.192095 O    1521 MOH    -0.6497 ****
9433 HO1    33.173681   -1.289575  -10.474231 H    1521 MOH     0.4215 ****
9434 HC1    30.872940   -8.387788  -16.513630 H    1522 MOH     0.0372 ****
9435 C1     31.654672   -7.714586  -16.865062 C    1522 MOH     0.1166 ****
9436 HC2    32.214124   -8.149371  -17.693084 H    1522 MOH     0.0372 ****
9437 HC3    32.339987   -7.509646  -16.043404 H    1522 MOH     0.0372 ****
9438 O1     31.080786   -6.515153  -17.310539 O    1522 MOH    -0.6497 ****
9439 HO1    31.275930   -5.871754  -16.624646 H    1522 MOH     0.4215 ****
9440 HC1    30.271225    3.812141  -12.150781 H    1523 MOH     0.0372 ****
9441 C1     29.470440    3.418181  -11.524992 C    1523 MOH     0.1166 ****
9442 HC2    28.904637    2.687825  -12.104112 H    1523 MOH     0.0372 ****
9443 HC3    28.797827    4.195078  -11.163660 H    1523 MOH     0.0372 ****
9444 O1     29.967539    2.677211  -10.480595 O    1523 MOH    -0.6497 ****
9445 HO1    30.511980    3.273253   -9.961579 H    1523 MOH     0.4215 ****
9446 HC1    29.483142   10.366975  -10.984055 H    1524 MOH     0.0372 ****
9447 C1     30.523527   10.394328  -11.310031 C    1524 MOH     0.1166 ****
9448 HC2    31.107806    9.754603  -10.647472 H    1524 MOH     0.0372 ****
9449 HC3    30.864741   11.428013  -11.256291 H    1524 MOH     0.0372 ****
9450 O1     30.590500    9.912187  -12.633028 O    1524 MOH    -0.6497 ****
9451 HO1    29.995829    9.159377  -12.676869 H    1524 MOH     0.4215 ****
9452 HC1    29.309360    5.347154  -19.999667 H    1525 MOH     0.0372 ****
9453 C1     29.352084    5.588837  -18.937592 C    1525 MOH     0.1166 ****
9454 HC2    30.389005    5.526784  -18.606666 H    1525 MOH     0.0372 ****
9455 HC3    28.754526    4.887059  -18.355643 H    1525 MOH     0.0372 ****
9456 O1     28.918494    6.882576  -18.668184 O    1525 MOH    -0.6497 ****
9457 HO1    28.148886    7.074045  -19.209121 H    1525 MOH     0.4215 ****
9458 HC1    26.706087    9.284709  -12.284424 H    1526 MOH     0.0372 ****
9459 C1     26.271343    8.399219  -11.821270 C    1526 MOH     0.1166 ****
9460 HC2    25.859115    7.724384  -12.571510 H    1526 MOH     0.0372 ****
9461 HC3    25.449196    8.685401  -11.164367 H    1526 MOH     0.0372 ****
9462 O1     27.176628    7.696623  -11.025774 O    1526 MOH    -0.6497 ****
9463 HO1    26.650084    6.978923  -10.665150 H    1526 MOH     0.4215 ****
9464 HC1    32.618732    7.456573  -19.612879 H    1527 MOH     0.0372 ****
9465 C1     32.078332    8.326142  -19.986232 C    1527 MOH     0.1166 ****
9466 HC2    31.634927    7.996686  -20.925976 H    1527 MOH     0.0372 ****
9467 HC3    32.801174    9.129166  -20.132603 H    1527 MOH     0.0372 ****
9468 O1     31.087021    8.664580  -18.992746 O    1527 MOH    -0.6497 ****
9469 HO1    30.451359    7.950554  -18.910015 H    1527 MOH     0.4215 ****
9470 HC1    31.062195    0.684551  -23.921988 H    1528 MOH     0.0372 ****
9471 C1     31.475001    1.692107  -23.958757 C    1528 MOH     0.1166 ****
9472 HC2    31.389553    2.162818  -22.979414 H    1528 MOH     0.0372 ****
9473 HC3    30.898228    2.279985  -24.672935 H    1528 MOH     0.0372 ****
9474 O1     32.814453    1.636586  -24.390092 O    1528 MOH    -0.6497 ****
9475 HO1    32.847940    0.976040  -25.085886 H    1528 MOH     0.4215 ****
9476 HC1    30.878598    7.785621   -9.545093 H    1529 MOH     0.0372 ****
9477 C1     30.487154    7.016482  -10.209773 C    1529 MOH     0.1166 ****
9478 HC2    30.986562    7.050366  -11.177802 H    1529 MOH     0.0372 ****
9479 HC3    29.415592    7.178964  -10.334224 H    1529 MOH     0.0372 ****
9480 O1     30.628028    5.749687   -9.624996 O    1529 MOH    -0.6497 ****
9481 HO1    30.181736    5.749279   -8.775761 H    1529 MOH     0.4215 ****
9482 HC1    30.815667   14.576015  -12.433624 H    1530 MOH     0.0372 ****
9483 C1     31.678228   15.038969  -12.913042 C    1530 MOH     0.1166 ****
9484 HC2    32.465156   15.153687  -12.167045 H    1530 MOH     0.0372 ****
9485 HC3    31.361263   16.031012  -13.235483 H    1530 MOH     0.0372 ****
9486 O1     32.061011   14.251458  -14.071990 O    1530 MOH    -0.6497 ****
9487 HO1    31.367036   14.297590  -14.733135 H    1530 MOH     0.4215 ****
9488 HC1    33.418362   19.633395  -14.089668 H    1531 MOH     0.0372 ****
9489 C1     32.510767   19.569708  -13.490042 C    1531 MOH     0.1166 ****
9490 HC2    31.899930   18.723001  -13.802583 H    1531 MOH     0.0372 ****
9491 HC3    31.961707   20.501739  -13.622271 H    1531 MOH     0.0372 ****
9492 O1     32.882581   19.386405  -12.165631 O    1531 MOH    -0.6497 ****
9493 HO1    33.409701   18.583789  -12.167045 H    1531 MOH     0.4215 ****
9494 HC1    30.966932    1.904397  -15.720963 H    1532 MOH     0.0372 ****
9495 C1     31.610678    2.688641  -16.117650 C    1532 MOH     0.1166 ****
9496 HC2    31.644742    3.490033  -15.380138 H    1532 MOH     0.0372 ****
9497 HC3    31.211729    3.128733  -17.032646 H    1532 MOH     0.0372 ****
9498 O1     32.922418    2.224055  -16.348167 O    1532 MOH    -0.6497 ****
9499 HO1    33.364668    3.011158  -16.673436 H    1532 MOH     0.4215 ****
9500 HC1    29.961188   10.910762  -15.469941 H    1533 MOH     0.0372 ****
9501 C1     29.794911   11.981189  -15.351147 C    1533 MOH     0.1166 ****
9502 HC2    30.148250   12.302072  -14.371097 H    1533 MOH     0.0372 ****
9503 HC3    28.727968   12.194295  -15.423271 H    1533 MOH     0.0372 ****
9504 O1     30.481958   12.695624  -16.360895 O    1533 MOH    -0.6497 ****
9505 HO1    30.391314   12.165717  -17.155683 H    1533 MOH     0.4215 ****
9506 HC1    27.234940    8.548229  -17.395392 H    1534 MOH     0.0372 ****
9507 C1     27.793815    9.180606  -16.705963 C    1534 MOH     0.1166 ****
9508 HC2    27.838849   10.181222  -17.136591 H    1534 MOH     0.0372 ****
9509 HC3    28.807065    8.786238  -16.625353 H    1534 MOH     0.0372 ****
9510 O1     27.128708    9.192853  -15.417615 O    1534 MOH    -0.6497 ****
9511 HO1    27.595784    8.574765  -14.851929 H    1534 MOH     0.4215 ****
9512 HC1    28.736051    5.407167  -14.063505 H    1535 MOH     0.0372 ****
9513 C1     29.323794    6.322868  -14.001987 C    1535 MOH     0.1166 ****
9514 HC2    29.789715    6.533524  -14.965066 H    1535 MOH     0.0372 ****
9515 HC3    30.112454    6.174265  -13.265182 H    1535 MOH     0.0372 ****
9516 O1     28.542061    7.447592  -13.626513 O    1535 MOH    -0.6497 ****
9517 HO1    28.141957    7.283476  -12.769500 H    1535 MOH     0.4215 ****
9518 HC1   -32.548872   -6.602110   14.984865 H    1536 MOH     0.0372 ****
9519 C1    -32.115282   -6.409008   15.965622 C    1536 MOH     0.1166 ****
9520 HC2   -31.829494   -5.358177   16.016534 H    1536 MOH     0.0372 ****
9521 HC3   -31.227317   -7.028321   16.092194 H    1536 MOH     0.0372 ****
9522 O1    -33.069642   -6.723768   16.973249 O    1536 MOH    -0.6497 ****
9523 HO1   -32.868724   -7.615382   17.265992 H    1536 MOH     0.4215 ****
9524 HC1   -28.479130   -8.213466   10.369579 H    1537 MOH     0.0372 ****
9525 C1    -28.673697   -7.472087   11.144568 C    1537 MOH     0.1166 ****
9526 HC2   -29.737754   -7.430037   11.377206 H    1537 MOH     0.0372 ****
9527 HC3   -28.372320   -6.483718   10.797379 H    1537 MOH     0.0372 ****
9528 O1    -28.003971   -7.802360   12.355842 O    1537 MOH    -0.6497 ****
9529 HO1   -28.221632   -8.696832   12.628078 H    1537 MOH     0.4215 ****
9530 HC1   -28.800137   -6.183655   14.151186 H    1538 MOH     0.0372 ****
9531 C1    -28.717576   -5.243868   14.697073 C    1538 MOH     0.1166 ****
9532 HC2   -29.544341   -4.588221   14.424130 H    1538 MOH     0.0372 ****
9533 HC3   -27.760329   -4.781730   14.452414 H    1538 MOH     0.0372 ****
9534 O1    -28.758568   -5.601901   16.038454 O    1538 MOH    -0.6497 ****
9535 HO1   -28.534556   -4.858889   16.602726 H    1538 MOH     0.4215 ****
9536 HC1   -31.042565  -10.504963    8.691615 H    1539 MOH     0.0372 ****
9537 C1    -31.565067   -9.575790    8.919303 C    1539 MOH     0.1166 ****
9538 HC2   -32.597369   -9.788896    9.197903 H    1539 MOH     0.0372 ****
9539 HC3   -31.524653   -8.929533    8.043198 H    1539 MOH     0.0372 ****
9540 O1    -30.877443   -9.012408    9.985620 O    1539 MOH    -0.6497 ****
9541 HO1   -30.414985   -9.727659   10.428269 H    1539 MOH     0.4215 ****
9542 HC1   -32.239412   -4.922576   22.026235 H    1540 MOH     0.0372 ****
9543 C1    -32.492292   -4.057906   22.640003 C    1540 MOH     0.1166 ****
9544 HC2   -31.684579   -3.874603   23.347817 H    1540 MOH     0.0372 ****
9545 HC3   -33.410279   -4.290608   23.178819 H    1540 MOH     0.0372 ****
9546 O1    -32.684550   -2.949512   21.783697 O    1540 MOH    -0.6497 ****
9547 HO1   -33.369864   -3.220589   21.168514 H    1540 MOH     0.4215 ****
9548 HC1   -31.145911  -11.224297   17.427212 H    1541 MOH     0.0372 ****
9549 C1    -31.977295  -10.540889   17.257506 C    1541 MOH     0.1166 ****
9550 HC2   -32.899324  -11.000985   17.614595 H    1541 MOH     0.0372 ****
9551 HC3   -32.047732  -10.352687   16.186240 H    1541 MOH     0.0372 ****
9552 O1    -31.649360   -9.320227   17.909459 O    1541 MOH    -0.6497 ****
9553 HO1   -31.036214   -9.517411   18.621515 H    1541 MOH     0.4215 ****
9554 HC1   -31.386089   -8.397994   13.449736 H    1542 MOH     0.0372 ****
9555 C1    -32.395874   -8.718877   13.193764 C    1542 MOH     0.1166 ****
9556 HC2   -33.093313   -8.288175   13.912891 H    1542 MOH     0.0372 ****
9557 HC3   -32.477281   -9.805226   13.228412 H    1542 MOH     0.0372 ****
9558 O1    -32.750945   -8.259598   11.921679 O    1542 MOH    -0.6497 ****
9559 HO1   -32.152232   -8.667029   11.292354 H    1542 MOH     0.4215 ****
9560 HC1   -29.241810  -12.689500   12.384834 H    1543 MOH     0.0372 ****
9561 C1    -30.147672  -12.364942   11.873595 C    1543 MOH     0.1166 ****
9562 HC2   -31.033328  -12.757677   12.372813 H    1543 MOH     0.0372 ****
9563 HC3   -30.140167  -12.713178   10.840512 H    1543 MOH     0.0372 ****
9564 O1    -30.240626  -10.972816   11.887738 O    1543 MOH    -0.6497 ****
9565 HO1   -29.970426  -10.687450   12.763843 H    1543 MOH     0.4215 ****
9566 HC1   -29.641914  -13.795444   16.821929 H    1544 MOH     0.0372 ****
9567 C1    -29.257976  -13.198585   15.994614 C    1544 MOH     0.1166 ****
9568 HC2   -28.570351  -13.815857   15.416200 H    1544 MOH     0.0372 ****
9569 HC3   -28.756836  -12.336773   16.436556 H    1544 MOH     0.0372 ****
9570 O1    -30.323187  -12.758902   15.207604 O    1544 MOH    -0.6497 ****
9571 HO1   -30.852617  -13.514978   14.945974 H    1544 MOH     0.4215 ****
9572 HC1   -29.749878   -8.338798   15.557622 H    1545 MOH     0.0372 ****
9573 C1    -29.109597   -9.214082   15.666516 C    1545 MOH     0.1166 ****
9574 HC2   -29.259708   -9.614982   16.669194 H    1545 MOH     0.0372 ****
9575 HC3   -28.070943   -8.901364   15.560450 H    1545 MOH     0.0372 ****
9576 O1    -29.488916  -10.155911   14.663132 O    1545 MOH    -0.6497 ****
9577 HO1   -29.559930  -11.029154   15.055576 H    1545 MOH     0.4215 ****
9578 HC1   -31.614142   -6.125276   19.978453 H    1546 MOH     0.0372 ****
9579 C1    -30.755622   -5.763568   19.412768 C    1546 MOH     0.1166 ****
9580 HC2   -31.103764   -5.244276   18.520399 H    1546 MOH     0.0372 ****
9581 HC3   -30.126310   -6.604151   19.119319 H    1546 MOH     0.0372 ****
9582 O1    -30.006222   -4.873995   20.208263 O    1546 MOH    -0.6497 ****
9583 HO1   -29.838790   -5.292449   21.056084 H    1546 MOH     0.4215 ****
9584 HC1   -30.815089   -4.804184   10.046431 H    1547 MOH     0.0372 ****
9585 C1    -31.261958   -4.390220    9.142749 C    1547 MOH     0.1166 ****
9586 HC2   -32.289642   -4.071378    9.314576 H    1547 MOH     0.0372 ****
9587 HC3   -31.231359   -5.162626    8.373417 H    1547 MOH     0.0372 ****
9588 O1    -30.451359   -3.325917    8.754547 O    1547 MOH    -0.6497 ****
9589 HO1   -30.269493   -2.779681    9.522465 H    1547 MOH     0.4215 ****
9590 HC1   -27.209075    5.051175   20.765463 H    1548 MOH     0.0372 ****
9591 C1    -27.147876    5.830929   21.523482 C    1548 MOH     0.1166 ****
9592 HC2   -26.787609    5.385122   22.451206 H    1548 MOH     0.0372 ****
9593 HC3   -28.140918    6.256324   21.669146 H    1548 MOH     0.0372 ****
9594 O1    -26.276654    6.853591   21.095682 O    1548 MOH    -0.6497 ****
9595 HO1   -25.389844    6.493516   21.029214 H    1548 MOH     0.4215 ****
9596 HC1   -20.950598    9.800327   14.984865 H    1549 MOH     0.0372 ****
9597 C1    -20.517008    9.993428   15.965622 C    1549 MOH     0.1166 ****
9598 HC2   -20.231220   11.044259   16.016534 H    1549 MOH     0.0372 ****
9599 HC3   -19.629043    9.374116   16.092194 H    1549 MOH     0.0372 ****
9600 O1    -21.471368    9.678669   16.973249 O    1549 MOH    -0.6497 ****
9601 HO1   -21.270450    8.787055   17.265992 H    1549 MOH     0.4215 ****
9602 HC1   -27.587817   -1.053362    7.352355 H    1550 MOH     0.0372 ****
9603 C1    -27.774878   -2.039282    7.777326 C    1550 MOH     0.1166 ****
9604 HC2   -28.166899   -1.944568    8.789903 H    1550 MOH     0.0372 ****
9605 HC3   -26.817631   -2.555716    7.845915 H    1550 MOH     0.0372 ****
9606 O1    -28.616077   -2.843123    6.928091 O    1550 MOH    -0.6497 ****
9607 HO1   -29.331992   -3.189317    7.465492 H    1550 MOH     0.4215 ****
9608 HC1   -24.957409   -0.581427   13.989259 H    1551 MOH     0.0372 ****
9609 C1    -25.806114   -0.146643   14.517468 C    1551 MOH     0.1166 ****
9610 HC2   -25.942368    0.880510   14.179471 H    1551 MOH     0.0372 ****
9611 HC3   -25.641569   -0.158890   15.595098 H    1551 MOH     0.0372 ****
9612 O1    -26.971784   -0.844747   14.183713 O    1551 MOH    -0.6497 ****
9613 HO1   -26.944649   -1.645322   14.713336 H    1551 MOH     0.4215 ****
9614 HC1   -16.880856    8.188971   10.369579 H    1552 MOH     0.0372 ****
9615 C1    -17.075423    8.930350   11.144568 C    1552 MOH     0.1166 ****
9616 HC2   -18.139480    8.972399   11.377206 H    1552 MOH     0.0372 ****
9617 HC3   -16.774046    9.918719   10.797379 H    1552 MOH     0.0372 ****
9618 O1    -16.405697    8.600077   12.355842 O    1552 MOH    -0.6497 ****
9619 HO1   -16.623358    7.705605   12.628078 H    1552 MOH     0.4215 ****
9620 HC1   -32.767226   12.901789   16.836778 H    1553 MOH     0.0372 ****
9621 C1    -32.163318   13.453333   17.557320 C    1553 MOH     0.1166 ****
9622 HC2   -31.351563   12.818098   17.910873 H    1553 MOH     0.0372 ****
9623 HC3   -32.811682   13.739106   18.386049 H    1553 MOH     0.0372 ****
9624 O1    -31.658713   14.577240   16.901832 O    1553 MOH    -0.6497 ****
9625 HO1   -30.845804   14.838927   17.340945 H    1553 MOH     0.4215 ****
9626 HC1   -26.063035    6.494332    4.375435 H    1554 MOH     0.0372 ****
9627 C1    -26.855159    5.961976    4.901522 C    1554 MOH     0.1166 ****
9628 HC2   -26.828024    6.219581    5.960061 H    1554 MOH     0.0372 ****
9629 HC3   -26.689460    4.894407    4.759394 H    1554 MOH     0.0372 ****
9630 O1    -28.083761    6.377573    4.345737 O    1554 MOH    -0.6497 ****
9631 HO1   -28.778313    6.018723    4.903644 H    1554 MOH     0.4215 ****
9632 HC1   -25.366750   14.385363    3.256085 H    1555 MOH     0.0372 ****
9633 C1    -24.829237   14.727884    2.371494 C    1555 MOH     0.1166 ****
9634 HC2   -25.157172   14.153887    1.504581 H    1555 MOH     0.0372 ****
9635 HC3   -23.769799   14.543355    2.549685 H    1555 MOH     0.0372 ****
9636 O1    -25.089622   16.108579    2.102794 O    1555 MOH    -0.6497 ****
9637 HO1   -24.830392   16.313520    1.201940 H    1555 MOH     0.4215 ****
9638 HC1   -21.997911   12.553145   11.898344 H    1556 MOH     0.0372 ****
9639 C1    -21.949414   11.465572   11.847432 C    1556 MOH     0.1166 ****
9640 HC2   -22.327578   11.110804   10.889303 H    1556 MOH     0.0372 ****
9641 HC3   -22.556209   11.018948   12.635149 H    1556 MOH     0.0372 ****
9642 O1    -20.612848   11.031195   11.920972 O    1556 MOH    -0.6497 ****
9643 HO1   -20.645180   10.071812   11.942185 H    1556 MOH     0.4215 ****
9644 HC1   -30.908158   11.528442    6.324928 H    1557 MOH     0.0372 ****
9645 C1    -30.862547   11.073653    5.334979 C    1557 MOH     0.1166 ****
9646 HC2   -29.945138   10.494757    5.226084 H    1557 MOH     0.0372 ****
9647 HC3   -30.872940   11.851366    4.572011 H    1557 MOH     0.0372 ****
9648 O1    -31.965864   10.237153    5.117897 O    1557 MOH    -0.6497 ****
9649 HO1   -31.706633    9.349621    5.375284 H    1557 MOH     0.4215 ****
9650 HC1   -22.801006    6.971574    4.820205 H    1558 MOH     0.0372 ****
9651 C1    -22.602397    7.932183    5.294674 C    1558 MOH     0.1166 ****
9652 HC2   -21.537763    8.149371    5.211235 H    1558 MOH     0.0372 ****
9653 HC3   -22.831605    7.897073    6.359577 H    1558 MOH     0.0372 ****
9654 O1    -23.395676    8.927900    4.643429 O    1558 MOH    -0.6497 ****
9655 HO1   -23.348334    9.703980    5.206993 H    1558 MOH     0.4215 ****
9656 HC1   -23.959748    1.504313    9.832178 H    1559 MOH     0.0372 ****
9657 C1    -23.912405    2.227729   10.646765 C    1559 MOH     0.1166 ****
9658 HC2   -24.705684    2.955228   10.475645 H    1559 MOH     0.0372 ****
9659 HC3   -22.951694    2.741306   10.600096 H    1559 MOH     0.0372 ****
9660 O1    -24.097734    1.585963   11.940771 O    1559 MOH    -0.6497 ****
9661 HO1   -24.289415    2.261614   12.596259 H    1559 MOH     0.4215 ****
9662 HC1   -17.201863   10.218781   14.151186 H    1560 MOH     0.0372 ****
9663 C1    -17.119302   11.158569   14.697073 C    1560 MOH     0.1166 ****
9664 HC2   -17.946067   11.814216   14.424130 H    1560 MOH     0.0372 ****
9665 HC3   -16.162055   11.620706   14.452414 H    1560 MOH     0.0372 ****
9666 O1    -17.160294   10.800535   16.038454 O    1560 MOH    -0.6497 ****
9667 HO1   -16.936282   11.543547   16.602726 H    1560 MOH     0.4215 ****
9668 HC1   -29.294464   14.843010   13.894506 H    1561 MOH     0.0372 ****
9669 C1    -29.960149   15.701964   13.979359 C    1561 MOH     0.1166 ****
9670 HC2   -31.002266   15.381898   13.972288 H    1561 MOH     0.0372 ****
9671 HC3   -29.825049   16.326584   13.096890 H    1561 MOH     0.0372 ****
9672 O1    -29.734405   16.498865   15.182855 O    1561 MOH    -0.6497 ****
9673 HO1   -29.807151   15.931808   15.952894 H    1561 MOH     0.4215 ****
9674 HC1   -29.219986    4.188954   22.844357 H    1562 MOH     0.0372 ****
9675 C1    -28.920341    3.141797   22.829508 C    1562 MOH     0.1166 ****
9676 HC2   -28.286411    2.953187   21.962595 H    1562 MOH     0.0372 ****
9677 HC3   -29.788099    2.487784   22.750312 H    1562 MOH     0.0372 ****
9678 O1    -28.215397    2.830712   24.023104 O    1562 MOH    -0.6497 ****
9679 HO1   -27.781229    1.982372   23.904310 H    1562 MOH     0.4215 ****
9680 HC1   -22.414181   -1.158690   10.436754 H    1563 MOH     0.0372 ****
9681 C1    -23.094300   -1.727380   11.071029 C    1563 MOH     0.1166 ****
9682 HC2   -22.739806   -1.690229   12.101284 H    1563 MOH     0.0372 ****
9683 HC3   -23.149148   -2.763923   10.739396 H    1563 MOH     0.0372 ****
9684 O1    -24.326942   -1.104393   10.989005 O    1563 MOH    -0.6497 ****
9685 HO1   -24.224751   -0.211554   11.324881 H    1563 MOH     0.4215 ****
9686 HC1   -28.546218    5.304697   15.420443 H    1564 MOH     0.0372 ****
9687 C1    -28.686514    5.150379   14.351298 C    1564 MOH     0.1166 ****
9688 HC2   -28.882813    6.104863   13.861980 H    1564 MOH     0.0372 ****
9689 HC3   -29.520785    4.471462   14.175228 H    1564 MOH     0.0372 ****
9690 O1    -27.511029    4.595978   13.799754 O    1564 MOH    -0.6497 ****
9691 HO1   -26.864397    4.495140   14.501911 H    1564 MOH     0.4215 ****
9692 HC1   -25.783020   13.341064   16.710913 H    1565 MOH     0.0372 ****
9693 C1    -25.300355   12.375149   16.563835 C    1565 MOH     0.1166 ****
9694 HC2   -26.073427   11.621114   16.416049 H    1565 MOH     0.0372 ****
9695 HC3   -24.735706   12.132649   17.463274 H    1565 MOH     0.0372 ****
9696 O1    -24.392183   12.402910   15.440949 O    1565 MOH    -0.6497 ****
9697 HO1   -23.680887   13.007117   15.670052 H    1565 MOH     0.4215 ****
9698 HC1   -31.090023    5.098531    8.051683 H    1566 MOH     0.0372 ****
9699 C1    -31.251104    4.085667    8.420086 C    1566 MOH     0.1166 ****
9700 HC2   -32.002237    4.130575    9.207803 H    1566 MOH     0.0372 ****
9701 HC3   -30.326189    3.685176    8.835157 H    1566 MOH     0.0372 ****
9702 O1    -31.702592    3.238960    7.363668 O    1566 MOH    -0.6497 ****
9703 HO1   -31.297869    2.380822    7.513575 H    1566 MOH     0.4215 ****
9704 HC1   -22.084514   -0.784327   15.665809 H    1567 MOH     0.0372 ****
9705 C1    -22.250791   -0.697370   16.739904 C    1567 MOH     0.1166 ****
9706 HC2   -22.178622    0.358769   16.999412 H    1567 MOH     0.0372 ****
9707 HC3   -21.463862   -1.251363   17.252557 H    1567 MOH     0.0372 ****
9708 O1    -23.576387   -1.216253   16.973957 O    1567 MOH    -0.6497 ****
9709 HO1   -23.887579   -0.867609   17.812585 H    1567 MOH     0.4215 ****
9710 HC1   -27.288749   18.142472    7.838844 H    1568 MOH     0.0372 ****
9711 C1    -27.869564   18.523776    8.678887 C    1568 MOH     0.1166 ****
9712 HC2   -27.572228   19.530925    8.970922 H    1568 MOH     0.0372 ****
9713 HC3   -27.661718   17.868538    9.525294 H    1568 MOH     0.0372 ****
9714 O1    -29.248853   18.480094    8.393923 O    1568 MOH    -0.6497 ****
9715 HO1   -29.654153   17.805259    8.943345 H    1568 MOH     0.4215 ****
9716 HC1   -22.490969    5.353687   14.484234 H    1569 MOH     0.0372 ****
9717 C1    -22.507712    4.346538   14.066334 C    1569 MOH     0.1166 ****
9718 HC2   -22.005994    3.688034   14.774147 H    1569 MOH     0.0372 ****
9719 HC3   -21.956342    4.317961   13.125882 H    1569 MOH     0.0372 ****
9720 O1    -23.850628    3.910937   13.917134 O    1569 MOH    -0.6497 ****
9721 HO1   -24.342531    4.171808   14.699901 H    1569 MOH     0.4215 ****
9722 HC1   -28.356270    9.144680   13.615906 H    1570 MOH     0.0372 ****
9723 C1    -29.419749    9.345538   13.484385 C    1570 MOH     0.1166 ****
9724 HC2   -30.001718    8.424530   13.511255 H    1570 MOH     0.0372 ****
9725 HC3   -29.584871    9.816249   12.514941 H    1570 MOH     0.0372 ****
9726 O1    -29.870082   10.235928   14.463727 O    1570 MOH    -0.6497 ****
9727 HO1   -29.759808   11.130400   14.133509 H    1570 MOH     0.4215 ****
9728 HC1   -24.643330   12.072229   10.819299 H    1571 MOH     0.0372 ****
9729 C1    -25.047475   12.418015    9.868240 C    1571 MOH     0.1166 ****
9730 HC2   -25.980474   11.894641    9.656108 H    1571 MOH     0.0372 ****
9731 HC3   -24.326365   12.273087    9.064260 H    1571 MOH     0.0372 ****
9732 O1    -25.294004   13.784014   10.022390 O    1571 MOH    -0.6497 ****
9733 HO1   -24.469548   14.239619   10.210480 H    1571 MOH     0.4215 ****
9734 HC1   -28.875885    0.816415   16.022898 H    1572 MOH     0.0372 ****
9735 C1    -29.061792    1.402251   15.122751 C    1572 MOH     0.1166 ****
9736 HC2   -29.043894    0.778448   14.228968 H    1572 MOH     0.0372 ****
9737 HC3   -28.314123    2.187721   15.013857 H    1572 MOH     0.0372 ****
9738 O1    -30.304250    1.990537   15.252152 O    1572 MOH    -0.6497 ****
9739 HO1   -30.602740    2.101172   14.346348 H    1572 MOH     0.4215 ****
9740 HC1   -27.691162    4.391445   17.442061 H    1573 MOH     0.0372 ****
9741 C1    -26.937143    3.637819   17.214373 C    1573 MOH     0.1166 ****
9742 HC2   -27.423272    2.748246   16.814858 H    1573 MOH     0.0372 ****
9743 HC3   -26.448127    3.348371   18.144218 H    1573 MOH     0.0372 ****
9744 O1    -26.002990    4.179973   16.269678 O    1573 MOH    -0.6497 ****
9745 HO1   -25.786484    5.077711   16.529186 H    1573 MOH     0.4215 ****
9746 HC1   -29.445730   12.744205    8.355739 H    1574 MOH     0.0372 ****
9747 C1    -29.683021   12.457615    9.381044 C    1574 MOH     0.1166 ****
9748 HC2   -28.920918   11.795028    9.790459 H    1574 MOH     0.0372 ****
9749 HC3   -30.636226   11.928933    9.361952 H    1574 MOH     0.0372 ****
9750 O1    -29.784634   13.583972   10.218965 O    1574 MOH    -0.6497 ****
9751 HO1   -29.010985   14.140414   10.099464 H    1574 MOH     0.4215 ****
9752 HC1   -31.754554   -2.238099   14.707679 H    1575 MOH     0.0372 ****
9753 C1    -32.161586   -1.237482   14.562722 C    1575 MOH     0.1166 ****
9754 HC2   -33.207167   -1.283206   14.257252 H    1575 MOH     0.0372 ****
9755 HC3   -31.605020   -0.779836   13.746014 H    1575 MOH     0.0372 ****
9756 O1    -32.006856   -0.413637   15.719549 O    1575 MOH    -0.6497 ****
9757 HO1   -31.723954    0.466546   15.459334 H    1575 MOH     0.4215 ****
9758 HC1   -32.348647    2.167309   16.930116 H    1576 MOH     0.0372 ****
9759 C1    -32.260312    3.153228   17.386200 C    1576 MOH     0.1166 ****
9760 HC2   -32.861334    3.185072   18.294125 H    1576 MOH     0.0372 ****
9761 HC3   -32.612496    3.888483   16.662830 H    1576 MOH     0.0372 ****
9762 O1    -30.920283    3.356944   17.693791 O    1576 MOH    -0.6497 ****
9763 HO1   -30.435308    2.890316   17.010019 H    1576 MOH     0.4215 ****
9764 HC1   -22.403789   13.959560    9.152648 H    1577 MOH     0.0372 ****
9765 C1    -21.983478   14.843010    9.633481 C    1577 MOH     0.1166 ****
9766 HC2   -21.730021   15.584797    8.876170 H    1577 MOH     0.0372 ****
9767 HC3   -21.096668   14.560094   10.199874 H    1577 MOH     0.0372 ****
9768 O1    -22.988644   15.339440   10.456553 O    1577 MOH    -0.6497 ****
9769 HO1   -22.632419   15.535807   11.325588 H    1577 MOH     0.4215 ****
9770 HC1   -30.385079   -2.670025   17.743996 H    1578 MOH     0.0372 ****
9771 C1    -29.308898   -2.661860   17.574290 C    1578 MOH     0.1166 ****
9772 HC2   -28.888587   -1.801681   18.094014 H    1578 MOH     0.0372 ****
9773 HC3   -29.105093   -2.601440   16.505145 H    1578 MOH     0.0372 ****
9774 O1    -28.715382   -3.806589   18.074922 O    1578 MOH    -0.6497 ****
9775 HO1   -29.177262   -4.067867   18.873953 H    1578 MOH     0.4215 ****
9776 HC1   -29.075648    8.255924    8.927081 H    1579 MOH     0.0372 ****
9777 C1    -29.061215    8.963418    8.097645 C    1579 MOH     0.1166 ****
9778 HC2   -30.051948    9.394528    7.956224 H    1579 MOH     0.0372 ****
9779 HC3   -28.722310    8.470254    7.186892 H    1579 MOH     0.0372 ****
9780 O1    -28.184219   10.015065    8.404529 O    1579 MOH    -0.6497 ****
9781 HO1   -27.987920   10.022006    9.344274 H    1579 MOH     0.4215 ****
9782 HC1   -22.944189    4.421247   22.256751 H    1580 MOH     0.0372 ****
9783 C1    -22.869133    5.463097   21.947039 C    1580 MOH     0.1166 ****
9784 HC2   -21.830480    5.687634   21.703794 H    1580 MOH     0.0372 ****
9785 HC3   -23.231132    6.064447   22.782132 H    1580 MOH     0.0372 ****
9786 O1    -23.757098    5.620681   20.870822 O    1580 MOH    -0.6497 ****
9787 HO1   -23.389903    5.100164   20.153109 H    1580 MOH     0.4215 ****
9788 HC1   -33.219291    0.508596   22.805466 H    1581 MOH     0.0372 ****
9789 C1    -32.226826    0.529417   22.355039 C    1581 MOH     0.1166 ****
9790 HC2   -31.703747    1.440627   22.644953 H    1581 MOH     0.0372 ****
9791 HC3   -32.286871    0.473895   21.268923 H    1581 MOH     0.0372 ****
9792 O1    -31.491859   -0.535295   22.803345 O    1581 MOH    -0.6497 ****
9793 HO1   -31.938728   -1.331379   22.507774 H    1581 MOH     0.4215 ****
9794 HC1   -24.321746   12.894441    6.278259 H    1582 MOH     0.0372 ****
9795 C1    -23.578119   12.373516    5.675804 C    1582 MOH     0.1166 ****
9796 HC2   -22.662441   12.963026    5.627721 H    1582 MOH     0.0372 ****
9797 HC3   -23.914137   12.252266    4.645550 H    1582 MOH     0.0372 ****
9798 O1    -23.239792   11.144688    6.259875 O    1582 MOH    -0.6497 ****
9799 HO1   -23.943582   10.873203    6.853137 H    1582 MOH     0.4215 ****
9800 HC1   -23.605832    7.217340   10.938093 H    1583 MOH     0.0372 ****
9801 C1    -23.645092    6.147729   10.733032 C    1583 MOH     0.1166 ****
9802 HC2   -24.423360    5.719477   11.364478 H    1583 MOH     0.0372 ****
9803 HC3   -22.676298    5.711312   10.976984 H    1583 MOH     0.0372 ****
9804 O1    -23.933767    5.855832    9.364781 O    1583 MOH    -0.6497 ****
9805 HO1   -23.504218    5.041377    9.092544 H    1583 MOH     0.4215 ****
9806 HC1   -19.444291    5.897473    8.691615 H    1584 MOH     0.0372 ****
9807 C1    -19.966793    6.826646    8.919303 C    1584 MOH     0.1166 ****
9808 HC2   -20.999095    6.613541    9.197903 H    1584 MOH     0.0372 ****
9809 HC3   -19.926379    7.472903    8.043198 H    1584 MOH     0.0372 ****
9810 O1    -19.279169    7.390029    9.985620 O    1584 MOH    -0.6497 ****
9811 HO1   -18.816711    6.674778   10.428269 H    1584 MOH     0.4215 ****
9812 HC1   -26.043982    1.111579   18.331602 H    1585 MOH     0.0372 ****
9813 C1    -25.792835    0.591062   19.255790 C    1585 MOH     0.1166 ****
9814 HC2   -26.459674   -0.262585   19.376705 H    1585 MOH     0.0372 ****
9815 HC3   -25.915810    1.260997   20.106440 H    1585 MOH     0.0372 ****
9816 O1    -24.452805    0.160360   19.158917 O    1585 MOH    -0.6497 ****
9817 HO1   -24.262857   -0.395266   19.917642 H    1585 MOH     0.4215 ****
9818 HC1   -24.571162    8.042001    8.310484 H    1586 MOH     0.0372 ****
9819 C1    -25.508201    8.297973    7.817631 C    1586 MOH     0.1166 ****
9820 HC2   -26.346514    7.966067    8.430692 H    1586 MOH     0.0372 ****
9821 HC3   -25.526676    7.799094    6.848895 H    1586 MOH     0.0372 ****
9822 O1    -25.538801    9.681527    7.600549 O    1586 MOH    -0.6497 ****
9823 HO1   -26.455055    9.922801    7.448521 H    1586 MOH     0.4215 ****
9824 HC1   -27.900740    3.332041    6.602821 H    1587 MOH     0.0372 ****
9825 C1    -27.595322    2.351837    6.235833 C    1587 MOH     0.1166 ****
9826 HC2   -26.646158    2.431445    5.706210 H    1587 MOH     0.0372 ****
9827 HC3   -28.362043    1.959510    5.569031 H    1587 MOH     0.0372 ****
9828 O1    -27.441747    1.431237    7.309928 O    1587 MOH    -0.6497 ****
9829 HO1   -26.592465    0.997269    7.201741 H    1587 MOH     0.4215 ****
9830 HC1   -22.059688    0.683734   13.275788 H    1588 MOH     0.0372 ****
9831 C1    -21.188466    1.187104   12.856474 C    1588 MOH     0.1166 ****
9832 HC2   -21.486379    2.136282   12.413118 H    1588 MOH     0.0372 ****
9833 HC3   -20.749680    0.575549   12.067343 H    1588 MOH     0.0372 ****
9834 O1    -20.219673    1.462264   13.842181 O    1588 MOH    -0.6497 ****
9835 HO1   -19.789547    0.624130   14.025321 H    1588 MOH     0.4215 ****
9836 HC1   -30.614864    7.007500    1.527916 H    1589 MOH     0.0372 ****
9837 C1    -29.691104    7.195703    0.979908 C    1589 MOH     0.1166 ****
9838 HC2   -29.100474    6.280818    1.017385 H    1589 MOH     0.0372 ****
9839 HC3   -29.168602    8.019140    1.467105 H    1589 MOH     0.0372 ****
9840 O1    -29.964190    7.548021   -0.374201 O    1589 MOH    -0.6497 ****
9841 HO1   -29.182458    7.970150   -0.737654 H    1589 MOH     0.4215 ****
9842 HC1   -26.507017   16.263306   11.549033 H    1590 MOH     0.0372 ****
9843 C1    -27.521999   15.879960   11.445089 C    1590 MOH     0.1166 ****
9844 HC2   -28.243109   16.697274   11.466302 H    1590 MOH     0.0372 ****
9845 HC3   -27.756980   15.185122   12.251190 H    1590 MOH     0.0372 ****
9846 O1    -27.649593   15.167975   10.262806 O    1590 MOH    -0.6497 ****
9847 HO1   -26.929060   14.534782   10.230986 H    1590 MOH     0.4215 ****
9848 HC1   -33.028188    2.269371   12.438574 H    1591 MOH     0.0372 ****
9849 C1    -32.171400    2.011358   11.814905 C    1591 MOH     0.1166 ****
9850 HC2   -31.985494    2.804584   11.091535 H    1591 MOH     0.0372 ****
9851 HC3   -32.417352    1.107496   11.257705 H    1591 MOH     0.0372 ****
9852 O1    -31.008040    1.820706   12.616057 O    1591 MOH    -0.6497 ****
9853 HO1   -30.311755    1.472878   12.054615 H    1591 MOH     0.4215 ****
9854 HC1   -26.973516    1.929300   11.621865 H    1592 MOH     0.0372 ****
9855 C1    -27.471769    1.153628   11.042038 C    1592 MOH     0.1166 ****
9856 HC2   -26.744885    0.408167   10.719597 H    1592 MOH     0.0372 ****
9857 HC3   -27.934227    1.627604   10.175832 H    1592 MOH     0.0372 ****
9858 O1    -28.446914    0.522884   11.838947 O    1592 MOH    -0.6497 ****
9859 HO1   -27.975219    0.153828   12.588480 H    1592 MOH     0.4215 ****
9860 HC1   -23.632967    7.981173   18.808899 H    1593 MOH     0.0372 ****
9861 C1    -24.255351    8.875645   18.799706 C    1593 MOH     0.1166 ****
9862 HC2   -23.811369    9.662747   19.409232 H    1593 MOH     0.0372 ****
9863 HC3   -25.227032    8.597627   19.209121 H    1593 MOH     0.0372 ****
9864 O1    -24.434907    9.328392   17.478124 O    1593 MOH    -0.6497 ****
9865 HO1   -23.577542    9.603959   17.145076 H    1593 MOH     0.4215 ****
9866 HC1   -27.649016   13.628063    7.328313 H    1594 MOH     0.0372 ****
9867 C1    -27.056077   13.289625    6.479078 C    1594 MOH     0.1166 ****
9868 HC2   -26.688882   12.293907    6.727272 H    1594 MOH     0.0372 ****
9869 HC3   -26.209104   13.959560    6.327050 H    1594 MOH     0.0372 ****
9870 O1    -27.860326   13.238594    5.308816 O    1594 MOH    -0.6497 ****
9871 HO1   -27.453294   12.588254    4.731110 H    1594 MOH     0.4215 ****
9872 HC1   -31.892540   13.948946   12.990824 H    1595 MOH     0.0372 ****
9873 C1    -31.711252   12.910771   13.270131 C    1595 MOH     0.1166 ****
9874 HC2   -32.370586   12.273495   12.681111 H    1595 MOH     0.0372 ****
9875 HC3   -31.935842   12.756045   14.325842 H    1595 MOH     0.0372 ****
9876 O1    -30.381037   12.515178   13.029008 O    1595 MOH    -0.6497 ****
9877 HO1   -30.201481   12.623364   12.092091 H    1595 MOH     0.4215 ****
9878 HC1   -28.004086    8.160802   16.649395 H    1596 MOH     0.0372 ****
9879 C1    -27.550289    9.040169   17.106186 C    1596 MOH     0.1166 ****
9880 HC2   -26.713131    9.356969   16.483932 H    1596 MOH     0.0372 ****
9881 HC3   -27.246603    8.791137   18.123005 H    1596 MOH     0.0372 ****
9882 O1    -28.500608   10.037927   17.070830 O    1596 MOH    -0.6497 ****
9883 HO1   -28.828542   10.093449   16.169976 H    1596 MOH     0.4215 ****
9884 HC1   -20.641138   11.479860   22.026235 H    1597 MOH     0.0372 ****
9885 C1    -20.894018   12.344530   22.640003 C    1597 MOH     0.1166 ****
9886 HC2   -20.086305   12.527834   23.347817 H    1597 MOH     0.0372 ****
9887 HC3   -21.812005   12.111829   23.178819 H    1597 MOH     0.0372 ****
9888 O1    -21.086275   13.452924   21.783697 O    1597 MOH    -0.6497 ****
9889 HO1   -21.771590   13.181848   21.168514 H    1597 MOH     0.4215 ****
9890 HC1   -24.381791    4.220389   18.492115 H    1598 MOH     0.0372 ****
9891 C1    -23.559067    3.529633   18.306853 C    1598 MOH     0.1166 ****
9892 HC2   -23.283670    3.650883   17.259628 H    1598 MOH     0.0372 ****
9893 HC3   -23.867372    2.489825   18.413626 H    1598 MOH     0.0372 ****
9894 O1    -22.469029    3.840310   19.191443 O    1598 MOH    -0.6497 ****
9895 HO1   -21.858193    3.099748   19.204171 H    1598 MOH     0.4215 ****
9896 HC1   -28.634553    5.561893    9.296898 H    1599 MOH     0.0372 ****
9897 C1    -27.707328    5.385122    9.840663 C    1599 MOH     0.1166 ****
9898 HC2   -27.773146    4.460439   10.414127 H    1599 MOH     0.0372 ****
9899 HC3   -27.483894    6.221622   10.503222 H    1599 MOH     0.0372 ****
9900 O1    -26.703893    5.283060    8.910111 O    1599 MOH    -0.6497 ****
9901 HO1   -25.893871    5.623947    9.296898 H    1599 MOH     0.4215 ****
9902 HC1   -30.731489    5.706005    4.024003 H    1600 MOH     0.0372 ****
9903 C1    -30.451474    4.797652    4.557869 C    1600 MOH     0.1166 ****
9904 HC2   -29.643184    4.302039    4.020467 H    1600 MOH     0.0372 ****
9905 HC3   -31.282281    4.091791    4.581203 H    1600 MOH     0.0372 ****
9906 O1    -30.013842    5.058931    5.877330 O    1600 MOH    -0.6497 ****
9907 HO1   -30.361407    4.354295    6.428873 H    1600 MOH     0.4215 ****
9908 HC1   -19.547637    5.178140   17.427212 H    1601 MOH     0.0372 ****
9909 C1    -20.379021    5.861547   17.257506 C    1601 MOH     0.1166 ****
9910 HC2   -21.301050    5.401452   17.614595 H    1601 MOH     0.0372 ****
9911 HC3   -20.449458    6.049750   16.186240 H    1601 MOH     0.0372 ****
9912 O1    -20.051086    7.082210   17.909459 O    1601 MOH    -0.6497 ****
9913 HO1   -19.437940    6.885026   18.621515 H    1601 MOH     0.4215 ****
9914 HC1   -19.787815    8.004443   13.449736 H    1602 MOH     0.0372 ****
9915 C1    -20.797600    7.683560   13.193764 C    1602 MOH     0.1166 ****
9916 HC2   -21.495039    8.114261   13.912891 H    1602 MOH     0.0372 ****
9917 HC3   -20.879007    6.597211   13.228412 H    1602 MOH     0.0372 ****
9918 O1    -21.152671    8.142839   11.921679 O    1602 MOH    -0.6497 ****
9919 HO1   -20.553958    7.735407   11.292354 H    1602 MOH     0.4215 ****
9920 HC1   -25.384071    8.669479   24.496866 H    1603 MOH     0.0372 ****
9921 C1    -25.159482    9.735415   24.547070 C    1603 MOH     0.1166 ****
9922 HC2   -25.518593   10.283285   23.675915 H    1603 MOH     0.0372 ****
9923 HC3   -24.073486    9.781956   24.474945 H    1603 MOH     0.0372 ****
9924 O1    -25.520326   10.333499   25.813498 O    1603 MOH    -0.6497 ****
9925 HO1   -25.592494   11.282268   25.687633 H    1603 MOH     0.4215 ****
9926 HC1   -26.297439   -4.781486   15.864506 H    1604 MOH     0.0372 ****
9927 C1    -25.716047   -4.024185   16.391301 C    1604 MOH     0.1166 ****
9928 HC2   -24.662383   -4.268317   16.254122 H    1604 MOH     0.0372 ****
9929 HC3   -25.945833   -4.013570   17.456203 H    1604 MOH     0.0372 ****
9930 O1    -25.844219   -2.763922   15.839050 O    1604 MOH    -0.6497 ****
9931 HO1   -25.045744   -2.287497   16.080174 H    1604 MOH     0.4215 ****
9932 HC1   -31.141985    6.575574   20.946482 H    1605 MOH     0.0372 ****
9933 C1    -30.796730    5.732541   20.348977 C    1605 MOH     0.1166 ****
9934 HC2   -30.056567    5.200593   20.947897 H    1605 MOH     0.0372 ****
9935 HC3   -30.355057    6.118336   19.430445 H    1605 MOH     0.0372 ****
9936 O1    -31.849239    4.814799   20.015223 O    1605 MOH    -0.6497 ****
9937 HO1   -31.570379    4.301631   19.253669 H    1605 MOH     0.4215 ****
9938 HC1   -23.984574   15.112862   14.723943 H    1606 MOH     0.0372 ****
9939 C1    -24.477053   15.549279   13.854909 C    1606 MOH     0.1166 ****
9940 HC2   -25.419289   16.036728   14.105224 H    1606 MOH     0.0372 ****
9941 HC3   -24.729356   14.714820   13.200128 H    1606 MOH     0.0372 ****
9942 O1    -23.639318   16.474370   13.154873 O    1606 MOH    -0.6497 ****
9943 HO1   -24.180295   17.174108   12.782935 H    1606 MOH     0.4215 ****
9944 HC1   -26.076891   -5.104002   11.201844 H    1607 MOH     0.0372 ****
9945 C1    -26.109800   -4.018878   11.102849 C    1607 MOH     0.1166 ****
9946 HC2   -25.664663   -3.549800   11.980369 H    1607 MOH     0.0372 ****
9947 HC3   -27.147298   -3.693096   11.027896 H    1607 MOH     0.0372 ****
9948 O1    -25.423908   -3.641656    9.937537 O    1607 MOH    -0.6497 ****
9949 HO1   -25.322294   -2.688397    9.977842 H    1607 MOH     0.4215 ****
9950 HC1   -17.643536    3.712937   12.384834 H    1608 MOH     0.0372 ****
9951 C1    -18.549398    4.037494   11.873595 C    1608 MOH     0.1166 ****
9952 HC2   -19.435054    3.644759   12.372813 H    1608 MOH     0.0372 ****
9953 HC3   -18.541893    3.689258   10.840512 H    1608 MOH     0.0372 ****
9954 O1    -18.642352    5.429621   11.887738 O    1608 MOH    -0.6497 ****
9955 HO1   -18.372152    5.714986   12.763843 H    1608 MOH     0.4215 ****
9956 HC1   -25.109252    8.276744   14.369682 H    1609 MOH     0.0372 ****
9957 C1    -24.445877    7.454940   14.639090 C    1609 MOH     0.1166 ****
9958 HC2   -23.429740    7.841143   14.716872 H    1609 MOH     0.0372 ****
9959 HC3   -24.459733    6.672329   13.880364 H    1609 MOH     0.0372 ****
9960 O1    -24.824041    7.027913   15.926024 O    1609 MOH    -0.6497 ****
9961 HO1   -24.770347    7.797053   16.497367 H    1609 MOH     0.4215 ****
9962 HC1   -21.329340   14.475995   18.473023 H    1610 MOH     0.0372 ****
9963 C1    -21.668822   13.730125   17.753895 C    1610 MOH     0.1166 ****
9964 HC2   -22.175158   12.892808   18.235435 H    1610 MOH     0.0372 ****
9965 HC3   -20.782012   13.333308   17.258921 H    1610 MOH     0.0372 ****
9966 O1    -22.510021   14.350662   16.799301 O    1610 MOH    -0.6497 ****
9967 HO1   -21.980591   15.035703   16.383522 H    1610 MOH     0.4215 ****
9968 HC1   -30.622947    7.239794    9.492060 H    1611 MOH     0.0372 ****
9969 C1    -31.253414    6.926259   10.323617 C    1611 MOH     0.1166 ****
9970 HC2   -32.229713    6.613541    9.953093 H    1611 MOH     0.0372 ****
9971 HC3   -31.423732    7.753370   11.013753 H    1611 MOH     0.0372 ****
9972 O1    -30.651237    5.872162   11.019410 O    1611 MOH    -0.6497 ****
9973 HO1   -31.301911    5.517802   11.628936 H    1611 MOH     0.4215 ****
9974 HC1   -27.960785   11.972208   12.635856 H    1612 MOH     0.0372 ****
9975 C1    -27.304338   12.247775   13.461050 C    1612 MOH     0.1166 ****
9976 HC2   -27.851088   12.211850   14.404330 H    1612 MOH     0.0372 ****
9977 HC3   -26.957928   13.270437   13.310436 H    1612 MOH     0.0372 ****
9978 O1    -26.185433   11.375757   13.526104 O    1612 MOH    -0.6497 ****
9979 HO1   -25.580370   11.702356   14.196441 H    1612 MOH     0.4215 ****
9980 HC1   -24.184337   16.687067   20.403424 H    1613 MOH     0.0372 ****
9981 C1    -24.496106   16.268205   21.360847 C    1613 MOH     0.1166 ****
9982 HC2   -25.023227   17.014482   21.953402 H    1613 MOH     0.0372 ****
9983 HC3   -23.603523   15.934666   21.889056 H    1613 MOH     0.0372 ****
9984 O1    -25.310747   15.154095   21.133866 O    1613 MOH    -0.6497 ****
9985 HO1   -25.996639   15.395370   20.508076 H    1613 MOH     0.4215 ****
9986 HC1   -29.347003   13.611325   19.195686 H    1614 MOH     0.0372 ****
9987 C1    -28.765034   13.853824   18.306146 C    1614 MOH     0.1166 ****
9988 HC2   -28.801407   13.032020   17.591261 H    1614 MOH     0.0372 ****
9989 HC3   -27.737928   13.997119   18.643436 H    1614 MOH     0.0372 ****
9990 O1    -29.230956   15.098165   17.774401 O    1614 MOH    -0.6497 ****
9991 HO1   -28.815263   15.775449   18.312510 H    1614 MOH     0.4215 ****
9992 HC1   -31.852703    9.045068   16.867183 H    1615 MOH     0.0372 ****
9993 C1    -31.689890    8.820939   17.921480 C    1615 MOH     0.1166 ****
9994 HC2   -31.122355    7.894216   18.013403 H    1615 MOH     0.0372 ****
9995 HC3   -32.673695    8.703364   18.375442 H    1615 MOH     0.0372 ****
9996 O1    -30.997070    9.897490   18.513328 O    1615 MOH    -0.6497 ****
9997 HO1   -30.158758    9.988121   18.055123 H    1615 MOH     0.4215 ****
9998 HC1   -32.130409    8.940148    7.531253 H    1616 MOH     0.0372 ****
9999 C1    -32.263776    7.917486    7.178406 C    1616 MOH     0.1166 ****
10000 HC2   -33.262592    7.839919    6.749900 H    1616 MOH     0.0372 ****
10001 HC3   -32.190453    7.200602    7.995822 H    1616 MOH     0.0372 ****
10002 O1    -31.343480    7.640285    6.166536 O    1616 MOH    -0.6497 ****
10003 HO1   -31.227433    6.692333    6.074613 H    1616 MOH     0.4215 ****
10004 HC1   -29.943406   -0.334437    6.488977 H    1617 MOH     0.0372 ****
10005 C1    -30.680105    0.011349    7.213762 C    1617 MOH     0.1166 ****
10006 HC2   -30.950882   -0.796574    7.894706 H    1617 MOH     0.0372 ****
10007 HC3   -31.588854    0.311004    6.693331 H    1617 MOH     0.0372 ****
10008 O1    -30.240164    1.092799    8.007843 O    1617 MOH    -0.6497 ****
10009 HO1   -29.292732    1.024213    8.143607 H    1617 MOH     0.4215 ****
10010 HC1   -28.994819   16.220848    6.841116 H    1618 MOH     0.0372 ****
10011 C1    -29.842369   15.556220    7.010822 C    1618 MOH     0.1166 ****
10012 HC2   -30.707818   16.200027    7.167093 H    1618 MOH     0.0372 ****
10013 HC3   -29.609697   14.954462    7.889049 H    1618 MOH     0.0372 ****
10014 O1    -29.975737   14.854441    5.795305 O    1618 MOH    -0.6497 ****
10015 HO1   -29.129919   14.448642    5.590244 H    1618 MOH     0.4215 ****
10016 HC1   -31.106189   -2.585110   12.251190 H    1619 MOH     0.0372 ****
10017 C1    -30.071000   -2.280965   12.094920 C    1619 MOH     0.1166 ****
10018 HC2   -29.482103   -3.183602   11.927336 H    1619 MOH     0.0372 ****
10019 HC3   -29.698032   -1.724114   12.953347 H    1619 MOH     0.0372 ****
10020 O1    -30.073310   -1.549384   10.918294 O    1619 MOH    -0.6497 ****
10021 HO1   -29.435915   -0.840257   11.027896 H    1619 MOH     0.4215 ****
10022 HC1   -18.043639    2.606992   16.821929 H    1620 MOH     0.0372 ****
10023 C1    -17.659702    3.203851   15.994614 C    1620 MOH     0.1166 ****
10024 HC2   -16.972077    2.586580   15.416200 H    1620 MOH     0.0372 ****
10025 HC3   -17.158561    4.065663   16.436556 H    1620 MOH     0.0372 ****
10026 O1    -18.724913    3.643534   15.207604 O    1620 MOH    -0.6497 ****
10027 HO1   -19.254343    2.887459   14.945974 H    1620 MOH     0.4215 ****
10028 HC1   -27.577424   11.603151   21.422365 H    1621 MOH     0.0372 ****
10029 C1    -27.513916   10.680102   20.846073 C    1621 MOH     0.1166 ****
10030 HC2   -26.482191   10.475978   20.560402 H    1621 MOH     0.0372 ****
10031 HC3   -28.131103   10.791962   19.955119 H    1621 MOH     0.0372 ****
10032 O1    -28.031799    9.626821   21.611163 O    1621 MOH    -0.6497 ****
10033 HO1   -27.781806    8.802160   21.186899 H    1621 MOH     0.4215 ****
10034 HC1   -32.965257   17.226772   10.090979 H    1622 MOH     0.0372 ****
10035 C1    -32.094036   16.571533   10.071887 C    1622 MOH     0.1166 ****
10036 HC2   -32.094613   15.999985    9.144163 H    1622 MOH     0.0372 ****
10037 HC3   -32.121748   15.862406   10.899909 H    1622 MOH     0.0372 ****
10038 O1    -30.915664   17.356186   10.145426 O    1622 MOH    -0.6497 ****
10039 HO1   -30.945109   17.866905   10.957892 H    1622 MOH     0.4215 ****
10040 HC1   -18.151604    8.063639   15.557622 H    1623 MOH     0.0372 ****
10041 C1    -17.511322    7.188354   15.666516 C    1623 MOH     0.1166 ****
10042 HC2   -17.661434    6.787455   16.669194 H    1623 MOH     0.0372 ****
10043 HC3   -16.472669    7.501073   15.560450 H    1623 MOH     0.0372 ****
10044 O1    -17.890642    6.246526   14.663132 O    1623 MOH    -0.6497 ****
10045 HO1   -17.961656    5.373282   15.055576 H    1623 MOH     0.4215 ****
10046 HC1   -20.015868   10.277161   19.978453 H    1624 MOH     0.0372 ****
10047 C1    -19.157348   10.638869   19.412768 C    1624 MOH     0.1166 ****
10048 HC2   -19.505490   11.158161   18.520399 H    1624 MOH     0.0372 ****
10049 HC3   -18.528036    9.798286   19.119319 H    1624 MOH     0.0372 ****
10050 O1    -18.407947   11.528442   20.208263 O    1624 MOH    -0.6497 ****
10051 HO1   -18.240516   11.109987   21.056084 H    1624 MOH     0.4215 ****
10052 HC1   -19.216815   11.598252   10.046431 H    1625 MOH     0.0372 ****
10053 C1    -19.663684   12.012216    9.142749 C    1625 MOH     0.1166 ****
10054 HC2   -20.691368   12.331058    9.314576 H    1625 MOH     0.0372 ****
10055 HC3   -19.633085   11.239810    8.373417 H    1625 MOH     0.0372 ****
10056 O1    -18.853084   13.076519    8.754547 O    1625 MOH    -0.6497 ****
10057 HO1   -18.671219   13.622756    9.522465 H    1625 MOH     0.4215 ****
10058 HC1   -25.990866    9.345946    4.640600 H    1626 MOH     0.0372 ****
10059 C1    -26.915204    9.861156    4.378971 C    1626 MOH     0.1166 ****
10060 HC2   -27.628231    9.814207    5.202750 H    1626 MOH     0.0372 ****
10061 HC3   -27.351103    9.414940    3.485895 H    1626 MOH     0.0372 ****
10062 O1    -26.677335   11.210416    4.099663 O    1626 MOH    -0.6497 ****
10063 HO1   -26.172731   11.240627    3.283662 H    1626 MOH     0.4215 ****
10064 HC1   -26.343050   -6.657386   14.364733 H    1627 MOH     0.0372 ****
10065 C1    -25.505314   -6.429176   13.705002 C    1627 MOH     0.1166 ****
10066 HC2   -25.147934   -5.427743   13.940469 H    1627 MOH     0.0372 ****
10067 HC3   -25.855766   -6.474083   12.674040 H    1627 MOH     0.0372 ****
10068 O1    -24.424515   -7.371004   13.909356 O    1627 MOH    -0.6497 ****
10069 HO1   -23.591398   -6.982760   13.631463 H    1627 MOH     0.4215 ****
10070 HC1   -32.149461    4.197936   13.980066 H    1628 MOH     0.0372 ****
10071 C1    -32.461230    5.241418   13.944711 C    1628 MOH     0.1166 ****
10072 HC2   -31.655249    5.898698   14.272809 H    1628 MOH     0.0372 ****
10073 HC3   -33.304162    5.364709   14.623534 H    1628 MOH     0.0372 ****
10074 O1    -32.914450    5.587613   12.650706 O    1628 MOH    -0.6497 ****
10075 HO1   -33.125760    6.523318   12.680404 H    1628 MOH     0.4215 ****
10076 HC1   -25.453353   12.211441   21.477520 H    1629 MOH     0.0372 ****
10077 C1    -24.527860   12.511096   21.971080 C    1629 MOH     0.1166 ****
10078 HC2   -24.083878   11.657040   22.483025 H    1629 MOH     0.0372 ****
10079 HC3   -24.773812   13.263089   22.720613 H    1629 MOH     0.0372 ****
10080 O1    -23.645669   13.010383   20.945068 O    1629 MOH    -0.6497 ****
10081 HO1   -23.836195   13.948538   20.870115 H    1629 MOH     0.4215 ****
10082 HC1   -27.036447   16.080410   16.825464 H    1630 MOH     0.0372 ****
10083 C1    -26.090748   16.423339   17.245486 C    1630 MOH     0.1166 ****
10084 HC2   -26.204486   17.397828   17.721368 H    1630 MOH     0.0372 ****
10085 HC3   -25.360977   16.536832   16.443626 H    1630 MOH     0.0372 ****
10086 O1    -25.649075   15.501106   18.217757 O    1630 MOH    -0.6497 ****
10087 HO1   -24.817690   15.112862   17.935622 H    1630 MOH     0.4215 ****
10088 HC1   -27.118431    8.014649   11.896223 H    1631 MOH     0.0372 ****
10089 C1    -26.336699    8.687850   11.544791 C    1631 MOH     0.1166 ****
10090 HC2   -25.777246    8.253066   10.716769 H    1631 MOH     0.0372 ****
10091 HC3   -25.651384    8.892791   12.366449 H    1631 MOH     0.0372 ****
10092 O1    -26.910585    9.887284   11.099313 O    1631 MOH    -0.6497 ****
10093 HO1   -26.715440   10.530683   11.785207 H    1631 MOH     0.4215 ****
10094 HC1   -27.720145   20.214578   16.259072 H    1632 MOH     0.0372 ****
10095 C1    -28.520930   19.820618   16.884861 C    1632 MOH     0.1166 ****
10096 HC2   -29.086734   19.090262   16.305741 H    1632 MOH     0.0372 ****
10097 HC3   -29.193543   20.597514   17.246193 H    1632 MOH     0.0372 ****
10098 O1    -28.023832   19.079647   17.929258 O    1632 MOH    -0.6497 ****
10099 HO1   -27.479390   19.675690   18.448274 H    1632 MOH     0.4215 ****
10100 HC1   -15.610801   21.453611   20.765463 H    1633 MOH     0.0372 ****
10101 C1    -15.549602   22.233365   21.523482 C    1633 MOH     0.1166 ****
10102 HC2   -15.189335   21.787558   22.451206 H    1633 MOH     0.0372 ****
10103 HC3   -16.542644   22.658760   21.669146 H    1633 MOH     0.0372 ****
10104 O1    -14.678380   23.256027   21.095682 O    1633 MOH    -0.6497 ****
10105 HO1   -13.791570   22.895952   21.029214 H    1633 MOH     0.4215 ****
10106 HC1    -9.352324   26.202763   14.984865 H    1634 MOH     0.0372 ****
10107 C1     -8.918734   26.395865   15.965622 C    1634 MOH     0.1166 ****
10108 HC2    -8.632946   27.446696   16.016534 H    1634 MOH     0.0372 ****
10109 HC3    -8.030769   25.776552   16.092194 H    1634 MOH     0.0372 ****
10110 O1     -9.873094   26.081105   16.973249 O    1634 MOH    -0.6497 ****
10111 HO1    -9.672176   25.189491   17.265992 H    1634 MOH     0.4215 ****
10112 HC1   -15.989543   15.349074    7.352355 H    1635 MOH     0.0372 ****
10113 C1    -16.176604   14.363155    7.777326 C    1635 MOH     0.1166 ****
10114 HC2   -16.568625   14.457868    8.789903 H    1635 MOH     0.0372 ****
10115 HC3   -15.219357   13.846721    7.845915 H    1635 MOH     0.0372 ****
10116 O1    -17.017803   13.559314    6.928091 O    1635 MOH    -0.6497 ****
10117 HO1   -17.733718   13.213119    7.465492 H    1635 MOH     0.4215 ****
10118 HC1   -13.359135   15.821009   13.989259 H    1636 MOH     0.0372 ****
10119 C1    -14.207840   16.255794   14.517468 C    1636 MOH     0.1166 ****
10120 HC2   -14.344094   17.282947   14.179471 H    1636 MOH     0.0372 ****
10121 HC3   -14.043295   16.243546   15.595098 H    1636 MOH     0.0372 ****
10122 O1    -15.373510   15.557689   14.183713 O    1636 MOH    -0.6497 ****
10123 HO1   -15.346374   14.757114   14.713336 H    1636 MOH     0.4215 ****
10124 HC1    -5.282582   24.591407   10.369579 H    1637 MOH     0.0372 ****
10125 C1     -5.477149   25.332786   11.144568 C    1637 MOH     0.1166 ****
10126 HC2    -6.541205   25.374836   11.377206 H    1637 MOH     0.0372 ****
10127 HC3    -5.175772   26.321155   10.797379 H    1637 MOH     0.0372 ****
10128 O1     -4.807423   25.002513   12.355842 O    1637 MOH    -0.6497 ****
10129 HO1    -5.025084   24.108041   12.628078 H    1637 MOH     0.4215 ****
10130 HC1   -14.464760   22.896769    4.375435 H    1638 MOH     0.0372 ****
10131 C1    -15.256885   22.364413    4.901522 C    1638 MOH     0.1166 ****
10132 HC2   -15.229750   22.622018    5.960061 H    1638 MOH     0.0372 ****
10133 HC3   -15.091186   21.296844    4.759394 H    1638 MOH     0.0372 ****
10134 O1    -16.485486   22.780010    4.345737 O    1638 MOH    -0.6497 ****
10135 HO1   -17.180039   22.421159    4.903644 H    1638 MOH     0.4215 ****
10136 HC1   -10.399637   28.955582   11.898344 H    1639 MOH     0.0372 ****
10137 C1    -10.351140   27.868008   11.847432 C    1639 MOH     0.1166 ****
10138 HC2   -10.729304   27.513240   10.889303 H    1639 MOH     0.0372 ****
10139 HC3   -10.957935   27.421385   12.635149 H    1639 MOH     0.0372 ****
10140 O1     -9.014574   27.433632   11.920972 O    1639 MOH    -0.6497 ****
10141 HO1    -9.046906   26.474249   11.942185 H    1639 MOH     0.4215 ****
10142 HC1   -19.309884   27.930878    6.324928 H    1640 MOH     0.0372 ****
10143 C1    -19.264273   27.476090    5.334979 C    1640 MOH     0.1166 ****
10144 HC2   -18.346864   26.897194    5.226084 H    1640 MOH     0.0372 ****
10145 HC3   -19.274666   28.253803    4.572011 H    1640 MOH     0.0372 ****
10146 O1    -20.367590   26.639589    5.117897 O    1640 MOH    -0.6497 ****
10147 HO1   -20.108359   25.752057    5.375284 H    1640 MOH     0.4215 ****
10148 HC1   -11.202731   23.374011    4.820205 H    1641 MOH     0.0372 ****
10149 C1    -11.004123   24.334619    5.294674 C    1641 MOH     0.1166 ****
10150 HC2    -9.939489   24.551807    5.211235 H    1641 MOH     0.0372 ****
10151 HC3   -11.233331   24.299510    6.359577 H    1641 MOH     0.0372 ****
10152 O1    -11.797402   25.330337    4.643429 O    1641 MOH    -0.6497 ****
10153 HO1   -11.750060   26.106417    5.206993 H    1641 MOH     0.4215 ****
10154 HC1   -25.627828   22.087212   13.265889 H    1642 MOH     0.0372 ****
10155 C1    -24.713305   22.393399   12.758186 C    1642 MOH     0.1166 ****
10156 HC2   -24.118057   23.047821   13.395289 H    1642 MOH     0.0372 ****
10157 HC3   -24.988701   22.939635   11.855918 H    1642 MOH     0.0372 ****
10158 O1    -24.011247   21.253978   12.360085 O    1642 MOH    -0.6497 ****
10159 HO1   -23.076517   21.452795   12.449887 H    1642 MOH     0.4215 ****
10160 HC1   -12.361474   17.906750    9.832178 H    1643 MOH     0.0372 ****
10161 C1    -12.314131   18.630166   10.646765 C    1643 MOH     0.1166 ****
10162 HC2   -13.107410   19.357664   10.475645 H    1643 MOH     0.0372 ****
10163 HC3   -11.353420   19.143742   10.600096 H    1643 MOH     0.0372 ****
10164 O1    -12.499460   17.988400   11.940771 O    1643 MOH    -0.6497 ****
10165 HO1   -12.691141   18.664050   12.596259 H    1643 MOH     0.4215 ****
10166 HC1   -28.682011   21.749591    8.410186 H    1644 MOH     0.0372 ****
10167 C1    -28.639287   21.991274    9.472261 C    1644 MOH     0.1166 ****
10168 HC2   -27.602366   21.929220    9.803187 H    1644 MOH     0.0372 ****
10169 HC3   -29.236845   21.289495   10.054209 H    1644 MOH     0.0372 ****
10170 O1    -29.072877   23.285013    9.741668 O    1644 MOH    -0.6497 ****
10171 HO1   -29.842485   23.476481    9.200732 H    1644 MOH     0.4215 ****
10172 HC1    -5.603589   26.621218   14.151186 H    1645 MOH     0.0372 ****
10173 C1     -5.521028   27.561005   14.697073 C    1645 MOH     0.1166 ****
10174 HC2    -6.347793   28.216652   14.424130 H    1645 MOH     0.0372 ****
10175 HC3    -4.563781   28.023143   14.452414 H    1645 MOH     0.0372 ****
10176 O1     -5.562019   27.202972   16.038454 O    1645 MOH    -0.6497 ****
10177 HO1    -5.338008   27.945984   16.602726 H    1645 MOH     0.4215 ****
10178 HC1   -17.621712   20.591391   22.844357 H    1646 MOH     0.0372 ****
10179 C1    -17.322067   19.544234   22.829508 C    1646 MOH     0.1166 ****
10180 HC2   -16.688137   19.355623   21.962595 H    1646 MOH     0.0372 ****
10181 HC3   -18.189825   18.890220   22.750312 H    1646 MOH     0.0372 ****
10182 O1    -16.617122   19.233149   24.023104 O    1646 MOH    -0.6497 ****
10183 HO1   -16.182955   18.384809   23.904310 H    1646 MOH     0.4215 ****
10184 HC1   -25.372639   23.859010    8.796974 H    1647 MOH     0.0372 ****
10185 C1    -25.913039   24.728579    8.423621 C    1647 MOH     0.1166 ****
10186 HC2   -26.356444   24.399122    7.483876 H    1647 MOH     0.0372 ****
10187 HC3   -25.190196   25.531603    8.277250 H    1647 MOH     0.0372 ****
10188 O1    -26.904349   25.067017    9.417106 O    1647 MOH    -0.6497 ****
10189 HO1   -27.540012   24.352990    9.499838 H    1647 MOH     0.4215 ****
10190 HC1   -26.929175   17.086987    4.487865 H    1648 MOH     0.0372 ****
10191 C1    -26.516370   18.094544    4.451095 C    1648 MOH     0.1166 ****
10192 HC2   -26.601818   18.565254    5.430438 H    1648 MOH     0.0372 ****
10193 HC3   -27.093143   18.682422    3.736918 H    1648 MOH     0.0372 ****
10194 O1    -25.176917   18.039022    4.019760 O    1648 MOH    -0.6497 ****
10195 HO1   -25.143431   17.378477    3.323967 H    1648 MOH     0.4215 ****
10196 HC1   -10.815907   15.243746   10.436754 H    1649 MOH     0.0372 ****
10197 C1    -11.496025   14.675056   11.071029 C    1649 MOH     0.1166 ****
10198 HC2   -11.141532   14.712207   12.101284 H    1649 MOH     0.0372 ****
10199 HC3   -11.550874   13.638514   10.739396 H    1649 MOH     0.0372 ****
10200 O1    -12.728668   15.298043   10.989005 O    1649 MOH    -0.6497 ****
10201 HO1   -12.626477   16.190882   11.324881 H    1649 MOH     0.4215 ****
10202 HC1   -16.947944   21.707133   15.420443 H    1650 MOH     0.0372 ****
10203 C1    -17.088240   21.552815   14.351298 C    1650 MOH     0.1166 ****
10204 HC2   -17.284539   22.507300   13.861980 H    1650 MOH     0.0372 ****
10205 HC3   -17.922511   20.873898   14.175228 H    1650 MOH     0.0372 ****
10206 O1    -15.912755   20.998414   13.799754 O    1650 MOH    -0.6497 ****
10207 HO1   -15.266123   20.897577   14.501911 H    1650 MOH     0.4215 ****
10208 HC1   -14.184746   29.743501   16.710913 H    1651 MOH     0.0372 ****
10209 C1    -13.702081   28.777585   16.563835 C    1651 MOH     0.1166 ****
10210 HC2   -14.475153   28.023551   16.416049 H    1651 MOH     0.0372 ****
10211 HC3   -13.137432   28.535086   17.463274 H    1651 MOH     0.0372 ****
10212 O1    -12.793909   28.805346   15.440949 O    1651 MOH    -0.6497 ****
10213 HO1   -12.082613   29.409554   15.670052 H    1651 MOH     0.4215 ****
10214 HC1   -19.491749   21.500968    8.051683 H    1652 MOH     0.0372 ****
10215 C1    -19.652830   20.488104    8.420086 C    1652 MOH     0.1166 ****
10216 HC2   -20.403963   20.533011    9.207803 H    1652 MOH     0.0372 ****
10217 HC3   -18.727915   20.087612    8.835157 H    1652 MOH     0.0372 ****
10218 O1    -20.104318   19.641397    7.363668 O    1652 MOH    -0.6497 ****
10219 HO1   -19.699595   18.783259    7.513575 H    1652 MOH     0.4215 ****
10220 HC1   -10.486240   15.618110   15.665809 H    1653 MOH     0.0372 ****
10221 C1    -10.652517   15.705067   16.739904 C    1653 MOH     0.1166 ****
10222 HC2   -10.580348   16.761205   16.999412 H    1653 MOH     0.0372 ****
10223 HC3    -9.865588   15.151074   17.252557 H    1653 MOH     0.0372 ****
10224 O1    -11.978113   15.186183   16.973957 O    1653 MOH    -0.6497 ****
10225 HO1   -12.289305   15.534827   17.812585 H    1653 MOH     0.4215 ****
10226 HC1   -10.892694   21.756123   14.484234 H    1654 MOH     0.0372 ****
10227 C1    -10.909438   20.748975   14.066334 C    1654 MOH     0.1166 ****
10228 HC2   -10.407720   20.090470   14.774147 H    1654 MOH     0.0372 ****
10229 HC3   -10.358068   20.720397   13.125882 H    1654 MOH     0.0372 ****
10230 O1    -12.252354   20.313374   13.917134 O    1654 MOH    -0.6497 ****
10231 HO1   -12.744257   20.574244   14.699901 H    1654 MOH     0.4215 ****
10232 HC1   -16.757996   25.547117   13.615906 H    1655 MOH     0.0372 ****
10233 C1    -17.821475   25.747975   13.484385 C    1655 MOH     0.1166 ****
10234 HC2   -18.403444   24.826967   13.511255 H    1655 MOH     0.0372 ****
10235 HC3   -17.986597   26.218685   12.514941 H    1655 MOH     0.0372 ****
10236 O1    -18.271808   26.638364   14.463727 O    1655 MOH    -0.6497 ****
10237 HO1   -18.161534   27.532836   14.133509 H    1655 MOH     0.4215 ****
10238 HC1   -13.045056   28.474665   10.819299 H    1656 MOH     0.0372 ****
10239 C1    -13.449201   28.820451    9.868240 C    1656 MOH     0.1166 ****
10240 HC2   -14.382199   28.297077    9.656108 H    1656 MOH     0.0372 ****
10241 HC3   -12.728091   28.675523    9.064260 H    1656 MOH     0.0372 ****
10242 O1    -13.695730   30.186450   10.022390 O    1656 MOH    -0.6497 ****
10243 HO1   -12.871274   30.642055   10.210480 H    1656 MOH     0.4215 ****
10244 HC1   -17.277611   17.218852   16.022898 H    1657 MOH     0.0372 ****
10245 C1    -17.463518   17.804688   15.122751 C    1657 MOH     0.1166 ****
10246 HC2   -17.445620   17.180884   14.228968 H    1657 MOH     0.0372 ****
10247 HC3   -16.715849   18.590158   15.013857 H    1657 MOH     0.0372 ****
10248 O1    -18.705976   18.392974   15.252152 O    1657 MOH    -0.6497 ****
10249 HO1   -19.004466   18.503609   14.346348 H    1657 MOH     0.4215 ****
10250 HC1   -16.092888   20.793882   17.442061 H    1658 MOH     0.0372 ****
10251 C1    -15.338869   20.040255   17.214373 C    1658 MOH     0.1166 ****
10252 HC2   -15.824998   19.150682   16.814858 H    1658 MOH     0.0372 ****
10253 HC3   -14.849853   19.750807   18.144218 H    1658 MOH     0.0372 ****
10254 O1    -14.404716   20.582409   16.269678 O    1658 MOH    -0.6497 ****
10255 HO1   -14.188210   21.480147   16.529186 H    1658 MOH     0.4215 ****
10256 HC1   -20.156280   14.164338   14.707679 H    1659 MOH     0.0372 ****
10257 C1    -20.563311   15.164954   14.562722 C    1659 MOH     0.1166 ****
10258 HC2   -21.608893   15.119231   14.257252 H    1659 MOH     0.0372 ****
10259 HC3   -20.006746   15.622601   13.746014 H    1659 MOH     0.0372 ****
10260 O1    -20.408582   15.988799   15.719549 O    1659 MOH    -0.6497 ****
10261 HO1   -20.125680   16.868983   15.459334 H    1659 MOH     0.4215 ****
10262 HC1   -20.750373   18.569745   16.930116 H    1660 MOH     0.0372 ****
10263 C1    -20.662038   19.555665   17.386200 C    1660 MOH     0.1166 ****
10264 HC2   -21.263060   19.587508   18.294125 H    1660 MOH     0.0372 ****
10265 HC3   -21.014222   20.290920   16.662830 H    1660 MOH     0.0372 ****
10266 O1    -19.322008   19.759381   17.693791 O    1660 MOH    -0.6497 ****
10267 HO1   -18.837034   19.292753   17.010019 H    1660 MOH     0.4215 ****
10268 HC1   -18.786805   13.732411   17.743996 H    1661 MOH     0.0372 ****
10269 C1    -17.710624   13.740576   17.574290 C    1661 MOH     0.1166 ****
10270 HC2   -17.290313   14.600755   18.094014 H    1661 MOH     0.0372 ****
10271 HC3   -17.506819   13.800997   16.505145 H    1661 MOH     0.0372 ****
10272 O1    -17.117108   12.595848   18.074922 O    1661 MOH    -0.6497 ****
10273 HO1   -17.578988   12.334569   18.873953 H    1661 MOH     0.4215 ****
10274 HC1   -22.971439   25.385859   14.613634 H    1662 MOH     0.0372 ****
10275 C1    -21.939715   25.102126   14.407866 C    1662 MOH     0.1166 ****
10276 HC2   -21.668937   24.276240   15.064768 H    1662 MOH     0.0372 ****
10277 HC3   -21.291350   25.952915   14.618584 H    1662 MOH     0.0372 ****
10278 O1    -21.801728   24.782876   13.045978 O    1662 MOH    -0.6497 ****
10279 HO1   -22.098486   25.575694   12.593430 H    1662 MOH     0.4215 ****
10280 HC1   -17.477374   24.658360    8.927081 H    1663 MOH     0.0372 ****
10281 C1    -17.462940   25.365854    8.097645 C    1663 MOH     0.1166 ****
10282 HC2   -18.453674   25.796965    7.956224 H    1663 MOH     0.0372 ****
10283 HC3   -17.124036   24.872690    7.186892 H    1663 MOH     0.0372 ****
10284 O1    -16.585945   26.417502    8.404529 O    1663 MOH    -0.6497 ****
10285 HO1   -16.389646   26.424442    9.344274 H    1663 MOH     0.4215 ****
10286 HC1   -11.345914   20.823684   22.256751 H    1664 MOH     0.0372 ****
10287 C1    -11.270859   21.865534   21.947039 C    1664 MOH     0.1166 ****
10288 HC2   -10.232206   22.090070   21.703794 H    1664 MOH     0.0372 ****
10289 HC3   -11.632858   22.466883   22.782132 H    1664 MOH     0.0372 ****
10290 O1    -12.158824   22.023117   20.870822 O    1664 MOH    -0.6497 ****
10291 HO1   -11.791629   21.502601   20.153109 H    1664 MOH     0.4215 ****
10292 HC1   -21.621017   16.911032   22.805466 H    1665 MOH     0.0372 ****
10293 C1    -20.628552   16.931853   22.355039 C    1665 MOH     0.1166 ****
10294 HC2   -20.105473   17.843063   22.644953 H    1665 MOH     0.0372 ****
10295 HC3   -20.688597   16.876331   21.268923 H    1665 MOH     0.0372 ****
10296 O1    -19.893585   15.867142   22.803345 O    1665 MOH    -0.6497 ****
10297 HO1   -20.340454   15.071057   22.507774 H    1665 MOH     0.4215 ****
10298 HC1   -26.274460   21.202130    6.711009 H    1666 MOH     0.0372 ****
10299 C1    -25.486377   21.236423    5.958647 C    1666 MOH     0.1166 ****
10300 HC2   -25.906688   21.627933    5.031630 H    1666 MOH     0.0372 ****
10301 HC3   -25.088583   20.238664    5.771971 H    1666 MOH     0.0372 ****
10302 O1    -24.480056   22.136610    6.308665 O    1666 MOH    -0.6497 ****
10303 HO1   -23.652713   21.671616    6.165122 H    1666 MOH     0.4215 ****
10304 HC1   -23.070744   20.581593    3.992890 H    1667 MOH     0.0372 ****
10305 C1    -22.640618   20.011678    4.817377 C    1667 MOH     0.1166 ****
10306 HC2   -21.865236   19.367870    4.402305 H    1667 MOH     0.0372 ****
10307 HC3   -23.385977   19.362972    5.277703 H    1667 MOH     0.0372 ****
10308 O1    -22.071350   20.906150    5.757122 O    1667 MOH    -0.6497 ****
10309 HO1   -21.656813   20.366854    6.433823 H    1667 MOH     0.4215 ****
10310 HC1   -12.723472   29.296877    6.278259 H    1668 MOH     0.0372 ****
10311 C1    -11.979845   28.775952    5.675804 C    1668 MOH     0.1166 ****
10312 HC2   -11.064167   29.365463    5.627721 H    1668 MOH     0.0372 ****
10313 HC3   -12.315863   28.654703    4.645550 H    1668 MOH     0.0372 ****
10314 O1    -11.641518   27.547125    6.259875 O    1668 MOH    -0.6497 ****
10315 HO1   -12.345308   27.275640    6.853137 H    1668 MOH     0.4215 ****
10316 HC1   -12.007558   23.619776   10.938093 H    1669 MOH     0.0372 ****
10317 C1    -12.046818   22.550166   10.733032 C    1669 MOH     0.1166 ****
10318 HC2   -12.825086   22.121913   11.364478 H    1669 MOH     0.0372 ****
10319 HC3   -11.078024   22.113749   10.976984 H    1669 MOH     0.0372 ****
10320 O1    -12.335493   22.258268    9.364781 O    1669 MOH    -0.6497 ****
10321 HO1   -11.905944   21.443813    9.092544 H    1669 MOH     0.4215 ****
10322 HC1    -7.846017   22.299910    8.691615 H    1670 MOH     0.0372 ****
10323 C1     -8.368519   23.229083    8.919303 C    1670 MOH     0.1166 ****
10324 HC2    -9.400821   23.015977    9.197903 H    1670 MOH     0.0372 ****
10325 HC3    -8.328105   23.875340    8.043198 H    1670 MOH     0.0372 ****
10326 O1     -7.680895   23.792465    9.985620 O    1670 MOH    -0.6497 ****
10327 HO1    -7.218437   23.077214   10.428269 H    1670 MOH     0.4215 ****
10328 HC1   -14.445708   17.514015   18.331602 H    1671 MOH     0.0372 ****
10329 C1    -14.194561   16.993499   19.255790 C    1671 MOH     0.1166 ****
10330 HC2   -14.861400   16.139851   19.376705 H    1671 MOH     0.0372 ****
10331 HC3   -14.317536   17.663434   20.106440 H    1671 MOH     0.0372 ****
10332 O1    -12.854531   16.562797   19.158917 O    1671 MOH    -0.6497 ****
10333 HO1   -12.664582   16.007171   19.917642 H    1671 MOH     0.4215 ****
10334 HC1   -12.972887   24.444438    8.310484 H    1672 MOH     0.0372 ****
10335 C1    -13.909927   24.700410    7.817631 C    1672 MOH     0.1166 ****
10336 HC2   -14.748240   24.368504    8.430692 H    1672 MOH     0.0372 ****
10337 HC3   -13.928402   24.201530    6.848895 H    1672 MOH     0.0372 ****
10338 O1    -13.940526   26.083963    7.600549 O    1672 MOH    -0.6497 ****
10339 HO1   -14.856781   26.325238    7.448521 H    1672 MOH     0.4215 ****
10340 HC1   -22.919478   23.742251   17.552370 H    1673 MOH     0.0372 ****
10341 C1    -23.929264   24.141518   17.644294 C    1673 MOH     0.1166 ****
10342 HC2   -24.541832   23.400139   18.157653 H    1673 MOH     0.0372 ****
10343 HC3   -24.330522   24.333395   16.648687 H    1673 MOH     0.0372 ****
10344 O1    -23.861136   25.330337   18.406555 O    1673 MOH    -0.6497 ****
10345 HO1   -23.526850   26.023542   17.832384 H    1673 MOH     0.4215 ****
10346 HC1   -16.302466   19.734477    6.602821 H    1674 MOH     0.0372 ****
10347 C1    -15.997048   18.754273    6.235833 C    1674 MOH     0.1166 ****
10348 HC2   -15.047884   18.833882    5.706210 H    1674 MOH     0.0372 ****
10349 HC3   -16.763769   18.361947    5.569031 H    1674 MOH     0.0372 ****
10350 O1    -15.843473   17.833673    7.309928 O    1674 MOH    -0.6497 ****
10351 HO1   -14.994191   17.399705    7.201741 H    1674 MOH     0.4215 ****
10352 HC1   -10.461414   17.086171   13.275788 H    1675 MOH     0.0372 ****
10353 C1     -9.590192   17.589541   12.856474 C    1675 MOH     0.1166 ****
10354 HC2    -9.888105   18.538718   12.413118 H    1675 MOH     0.0372 ****
10355 HC3    -9.151406   16.977985   12.067343 H    1675 MOH     0.0372 ****
10356 O1     -8.621398   17.864700   13.842181 O    1675 MOH    -0.6497 ****
10357 HO1    -8.191273   17.026567   14.025321 H    1675 MOH     0.4215 ****
10358 HC1   -19.016590   23.409937    1.527916 H    1676 MOH     0.0372 ****
10359 C1    -18.092830   23.598139    0.979908 C    1676 MOH     0.1166 ****
10360 HC2   -17.502200   22.683255    1.017385 H    1676 MOH     0.0372 ****
10361 HC3   -17.570328   24.421576    1.467105 H    1676 MOH     0.0372 ****
10362 O1    -18.365916   23.950458   -0.374201 O    1676 MOH    -0.6497 ****
10363 HO1   -17.584184   24.372586   -0.737654 H    1676 MOH     0.4215 ****
10364 HC1   -21.429914   18.671807   12.438574 H    1677 MOH     0.0372 ****
10365 C1    -20.573126   18.413794   11.814905 C    1677 MOH     0.1166 ****
10366 HC2   -20.387220   19.207021   11.091535 H    1677 MOH     0.0372 ****
10367 HC3   -20.819078   17.509933   11.257705 H    1677 MOH     0.0372 ****
10368 O1    -19.409766   18.223142   12.616057 O    1677 MOH    -0.6497 ****
10369 HO1   -18.713481   17.875315   12.054615 H    1677 MOH     0.4215 ****
10370 HC1   -15.375242   18.331736   11.621865 H    1678 MOH     0.0372 ****
10371 C1    -15.873495   17.556065   11.042038 C    1678 MOH     0.1166 ****
10372 HC2   -15.146611   16.810603   10.719597 H    1678 MOH     0.0372 ****
10373 HC3   -16.335953   18.030041   10.175832 H    1678 MOH     0.0372 ****
10374 O1    -16.848640   16.925321   11.838947 O    1678 MOH    -0.6497 ****
10375 HO1   -16.376945   16.556265   12.588480 H    1678 MOH     0.4215 ****
10376 HC1   -12.034693   24.383609   18.808899 H    1679 MOH     0.0372 ****
10377 C1    -12.657077   25.278081   18.799706 C    1679 MOH     0.1166 ****
10378 HC2   -12.213095   26.065184   19.409232 H    1679 MOH     0.0372 ****
10379 HC3   -13.628757   25.000064   19.209121 H    1679 MOH     0.0372 ****
10380 O1    -12.836633   25.730828   17.478124 O    1679 MOH    -0.6497 ****
10381 HO1   -11.979268   26.006396   17.145076 H    1679 MOH     0.4215 ****
10382 HC1   -16.405812   24.563238   16.649395 H    1680 MOH     0.0372 ****
10383 C1    -15.952015   25.442605   17.106186 C    1680 MOH     0.1166 ****
10384 HC2   -15.114857   25.759406   16.483932 H    1680 MOH     0.0372 ****
10385 HC3   -15.648329   25.193574   18.123005 H    1680 MOH     0.0372 ****
10386 O1    -16.902333   26.440364   17.070830 O    1680 MOH    -0.6497 ****
10387 HO1   -17.230268   26.495886   16.169976 H    1680 MOH     0.4215 ****
10388 HC1    -9.042864   27.882297   22.026235 H    1681 MOH     0.0372 ****
10389 C1     -9.295744   28.746967   22.640003 C    1681 MOH     0.1166 ****
10390 HC2    -8.488031   28.930270   23.347817 H    1681 MOH     0.0372 ****
10391 HC3   -10.213731   28.514265   23.178819 H    1681 MOH     0.0372 ****
10392 O1     -9.488001   29.855361   21.783697 O    1681 MOH    -0.6497 ****
10393 HO1   -10.173316   29.584284   21.168514 H    1681 MOH     0.4215 ****
10394 HC1   -12.783517   20.622826   18.492115 H    1682 MOH     0.0372 ****
10395 C1    -11.960792   19.932070   18.306853 C    1682 MOH     0.1166 ****
10396 HC2   -11.685396   20.053319   17.259628 H    1682 MOH     0.0372 ****
10397 HC3   -12.269098   18.892261   18.413626 H    1682 MOH     0.0372 ****
10398 O1    -10.870755   20.242747   19.191443 O    1682 MOH    -0.6497 ****
10399 HO1   -10.259919   19.502184   19.204171 H    1682 MOH     0.4215 ****
10400 HC1   -17.036279   21.964330    9.296898 H    1683 MOH     0.0372 ****
10401 C1    -16.109054   21.787558    9.840663 C    1683 MOH     0.1166 ****
10402 HC2   -16.174872   20.862876   10.414127 H    1683 MOH     0.0372 ****
10403 HC3   -15.885620   22.624059   10.503222 H    1683 MOH     0.0372 ****
10404 O1    -15.105619   21.685496    8.910111 O    1683 MOH    -0.6497 ****
10405 HO1   -14.295597   22.026383    9.296898 H    1683 MOH     0.4215 ****
10406 HC1   -19.133215   22.108441    4.024003 H    1684 MOH     0.0372 ****
10407 C1    -18.853200   21.200089    4.557869 C    1684 MOH     0.1166 ****
10408 HC2   -18.044909   20.704475    4.020467 H    1684 MOH     0.0372 ****
10409 HC3   -19.684007   20.494228    4.581203 H    1684 MOH     0.0372 ****
10410 O1    -18.415568   21.461368    5.877330 O    1684 MOH    -0.6497 ****
10411 HO1   -18.763133   20.756731    6.428873 H    1684 MOH     0.4215 ****
10412 HC1    -7.949363   21.580576   17.427212 H    1685 MOH     0.0372 ****
10413 C1     -8.780747   22.263984   17.257506 C    1685 MOH     0.1166 ****
10414 HC2    -9.702776   21.803888   17.614595 H    1685 MOH     0.0372 ****
10415 HC3    -8.851184   22.452186   16.186240 H    1685 MOH     0.0372 ****
10416 O1     -8.452812   23.484646   17.909459 O    1685 MOH    -0.6497 ****
10417 HO1    -7.839666   23.287462   18.621515 H    1685 MOH     0.4215 ****
10418 HC1    -8.189540   24.406879   13.449736 H    1686 MOH     0.0372 ****
10419 C1     -9.199326   24.085996   13.193764 C    1686 MOH     0.1166 ****
10420 HC2    -9.896765   24.516698   13.912891 H    1686 MOH     0.0372 ****
10421 HC3    -9.280732   22.999647   13.228412 H    1686 MOH     0.0372 ****
10422 O1     -9.554397   24.545275   11.921679 O    1686 MOH    -0.6497 ****
10423 HO1    -8.955684   24.137844   11.292354 H    1686 MOH     0.4215 ****
10424 HC1   -13.785797   25.071916   24.496866 H    1687 MOH     0.0372 ****
10425 C1    -13.561208   26.137852   24.547070 C    1687 MOH     0.1166 ****
10426 HC2   -13.920319   26.685721   23.675915 H    1687 MOH     0.0372 ****
10427 HC3   -12.475212   26.184392   24.474945 H    1687 MOH     0.0372 ****
10428 O1    -13.922051   26.735936   25.813498 O    1687 MOH    -0.6497 ****
10429 HO1   -13.994220   27.684705   25.687633 H    1687 MOH     0.4215 ****
10430 HC1   -14.699165   11.620951   15.864506 H    1688 MOH     0.0372 ****
10431 C1    -14.117773   12.378252   16.391301 C    1688 MOH     0.1166 ****
10432 HC2   -13.064109   12.134119   16.254122 H    1688 MOH     0.0372 ****
10433 HC3   -14.347558   12.388866   17.456203 H    1688 MOH     0.0372 ****
10434 O1    -14.245945   13.638514   15.839050 O    1688 MOH    -0.6497 ****
10435 HO1   -13.447469   14.114940   16.080174 H    1688 MOH     0.4215 ****
10436 HC1   -19.543711   22.978010   20.946482 H    1689 MOH     0.0372 ****
10437 C1    -19.198455   22.134977   20.348977 C    1689 MOH     0.1166 ****
10438 HC2   -18.458292   21.603030   20.947897 H    1689 MOH     0.0372 ****
10439 HC3   -18.756783   22.520772   19.430445 H    1689 MOH     0.0372 ****
10440 O1    -20.250965   21.217235   20.015223 O    1689 MOH    -0.6497 ****
10441 HO1   -19.972105   20.704067   19.253669 H    1689 MOH     0.4215 ****
10442 HC1   -14.478617   11.298435   11.201844 H    1690 MOH     0.0372 ****
10443 C1    -14.511526   12.383559   11.102849 C    1690 MOH     0.1166 ****
10444 HC2   -14.066389   12.852636   11.980369 H    1690 MOH     0.0372 ****
10445 HC3   -15.549024   12.709341   11.027896 H    1690 MOH     0.0372 ****
10446 O1    -13.825634   12.760780    9.937537 O    1690 MOH    -0.6497 ****
10447 HO1   -13.724020   13.714040    9.977842 H    1690 MOH     0.4215 ****
10448 HC1    -6.045262   20.115373   12.384834 H    1691 MOH     0.0372 ****
10449 C1     -6.951124   20.439931   11.873595 C    1691 MOH     0.1166 ****
10450 HC2    -7.836779   20.047196   12.372813 H    1691 MOH     0.0372 ****
10451 HC3    -6.943619   20.091695   10.840512 H    1691 MOH     0.0372 ****
10452 O1     -7.044078   21.832057   11.887738 O    1691 MOH    -0.6497 ****
10453 HO1    -6.773878   22.117423   12.763843 H    1691 MOH     0.4215 ****
10454 HC1   -13.510978   24.679181   14.369682 H    1692 MOH     0.0372 ****
10455 C1    -12.847602   23.857377   14.639090 C    1692 MOH     0.1166 ****
10456 HC2   -11.831466   24.243580   14.716872 H    1692 MOH     0.0372 ****
10457 HC3   -12.861459   23.074765   13.880364 H    1692 MOH     0.0372 ****
10458 O1    -13.225767   23.430349   15.926024 O    1692 MOH    -0.6497 ****
10459 HO1   -13.172073   24.199489   16.497367 H    1692 MOH     0.4215 ****
10460 HC1    -9.731066   30.878431   18.473023 H    1693 MOH     0.0372 ****
10461 C1    -10.070548   30.132561   17.753895 C    1693 MOH     0.1166 ****
10462 HC2   -10.576884   29.295244   18.235435 H    1693 MOH     0.0372 ****
10463 HC3    -9.183738   29.735744   17.258921 H    1693 MOH     0.0372 ****
10464 O1    -10.911747   30.753099   16.799301 O    1693 MOH    -0.6497 ****
10465 HO1   -10.382317   31.438140   16.383522 H    1693 MOH     0.4215 ****
10466 HC1   -19.024673   23.642230    9.492060 H    1694 MOH     0.0372 ****
10467 C1    -19.655139   23.328695   10.323617 C    1694 MOH     0.1166 ****
10468 HC2   -20.631439   23.015977    9.953093 H    1694 MOH     0.0372 ****
10469 HC3   -19.825458   24.155806   11.013753 H    1694 MOH     0.0372 ****
10470 O1    -19.052963   22.274598   11.019410 O    1694 MOH    -0.6497 ****
10471 HO1   -19.703637   21.920239   11.628936 H    1694 MOH     0.4215 ****
10472 HC1   -16.362511   28.374644   12.635856 H    1695 MOH     0.0372 ****
10473 C1    -15.706064   28.650212   13.461050 C    1695 MOH     0.1166 ****
10474 HC2   -16.252814   28.614286   14.404330 H    1695 MOH     0.0372 ****
10475 HC3   -15.359653   29.672874   13.310436 H    1695 MOH     0.0372 ****
10476 O1    -14.587159   27.778194   13.526104 O    1695 MOH    -0.6497 ****
10477 HO1   -13.982096   28.104792   14.196441 H    1695 MOH     0.4215 ****
10478 HC1   -27.024438   18.306833   12.688889 H    1696 MOH     0.0372 ****
10479 C1    -26.380693   19.091078   12.292202 C    1696 MOH     0.1166 ****
10480 HC2   -26.346629   19.892470   13.029715 H    1696 MOH     0.0372 ****
10481 HC3   -26.779642   19.531170   11.377206 H    1696 MOH     0.0372 ****
10482 O1    -25.068953   18.626492   12.061686 O    1696 MOH    -0.6497 ****
10483 HO1   -24.626703   19.413594   11.736417 H    1696 MOH     0.4215 ****
10484 HC1   -20.254429   25.447504   16.867183 H    1697 MOH     0.0372 ****
10485 C1    -20.091616   25.223376   17.921480 C    1697 MOH     0.1166 ****
10486 HC2   -19.524081   24.296652   18.013403 H    1697 MOH     0.0372 ****
10487 HC3   -21.075421   25.105800   18.375442 H    1697 MOH     0.0372 ****
10488 O1    -19.398796   26.299927   18.513328 O    1697 MOH    -0.6497 ****
10489 HO1   -18.560483   26.390558   18.055123 H    1697 MOH     0.4215 ****
10490 HC1   -20.532134   25.342584    7.531253 H    1698 MOH     0.0372 ****
10491 C1    -20.665502   24.319922    7.178406 C    1698 MOH     0.1166 ****
10492 HC2   -21.664318   24.242355    6.749900 H    1698 MOH     0.0372 ****
10493 HC3   -20.592179   23.603038    7.995822 H    1698 MOH     0.0372 ****
10494 O1    -19.745206   24.042722    6.166536 O    1698 MOH    -0.6497 ****
10495 HO1   -19.629159   23.094769    6.074613 H    1698 MOH     0.4215 ****
10496 HC1   -18.345132   16.068000    6.488977 H    1699 MOH     0.0372 ****
10497 C1    -19.081831   16.413786    7.213762 C    1699 MOH     0.1166 ****
10498 HC2   -19.352608   15.605863    7.894706 H    1699 MOH     0.0372 ****
10499 HC3   -19.990580   16.713440    6.693331 H    1699 MOH     0.0372 ****
10500 O1    -18.641890   17.495236    8.007843 O    1699 MOH    -0.6497 ****
10501 HO1   -17.694458   17.426650    8.143607 H    1699 MOH     0.4215 ****
10502 HC1   -19.507915   13.817327   12.251190 H    1700 MOH     0.0372 ****
10503 C1    -18.472726   14.121472   12.094920 C    1700 MOH     0.1166 ****
10504 HC2   -17.883829   13.218835   11.927336 H    1700 MOH     0.0372 ****
10505 HC3   -18.099758   14.678322   12.953347 H    1700 MOH     0.0372 ****
10506 O1    -18.475036   14.853053   10.918294 O    1700 MOH    -0.6497 ****
10507 HO1   -17.837641   15.562180   11.027896 H    1700 MOH     0.4215 ****
10508 HC1    -6.445365   19.009429   16.821929 H    1701 MOH     0.0372 ****
10509 C1     -6.061427   19.606288   15.994614 C    1701 MOH     0.1166 ****
10510 HC2    -5.373803   18.989016   15.416200 H    1701 MOH     0.0372 ****
10511 HC3    -5.560287   20.468100   16.436556 H    1701 MOH     0.0372 ****
10512 O1     -7.126639   20.045971   15.207604 O    1701 MOH    -0.6497 ****
10513 HO1    -7.656069   19.289895   14.945974 H    1701 MOH     0.4215 ****
10514 HC1   -15.979150   28.005588   21.422365 H    1702 MOH     0.0372 ****
10515 C1    -15.915642   27.082539   20.846073 C    1702 MOH     0.1166 ****
10516 HC2   -14.883917   26.878414   20.560402 H    1702 MOH     0.0372 ****
10517 HC3   -16.532829   27.194399   19.955119 H    1702 MOH     0.0372 ****
10518 O1    -16.433525   26.029258   21.611163 O    1702 MOH    -0.6497 ****
10519 HO1   -16.183532   25.204596   21.186899 H    1702 MOH     0.4215 ****
10520 HC1    -6.553330   24.466075   15.557622 H    1703 MOH     0.0372 ****
10521 C1     -5.913048   23.590791   15.666516 C    1703 MOH     0.1166 ****
10522 HC2    -6.063159   23.189891   16.669194 H    1703 MOH     0.0372 ****
10523 HC3    -4.874395   23.903509   15.560450 H    1703 MOH     0.0372 ****
10524 O1     -6.292368   22.648962   14.663132 O    1703 MOH    -0.6497 ****
10525 HO1    -6.363382   21.775719   15.055576 H    1703 MOH     0.4215 ****
10526 HC1    -8.417594   26.679597   19.978453 H    1704 MOH     0.0372 ****
10527 C1     -7.559074   27.041305   19.412768 C    1704 MOH     0.1166 ****
10528 HC2    -7.907216   27.560597   18.520399 H    1704 MOH     0.0372 ****
10529 HC3    -6.929762   26.200722   19.119319 H    1704 MOH     0.0372 ****
10530 O1     -6.809673   27.930878   20.208263 O    1704 MOH    -0.6497 ****
10531 HO1    -6.642242   27.512424   21.056084 H    1704 MOH     0.4215 ****
10532 HC1    -7.618541   28.000689   10.046431 H    1705 MOH     0.0372 ****
10533 C1     -8.065410   28.414653    9.142749 C    1705 MOH     0.1166 ****
10534 HC2    -9.093094   28.733495    9.314576 H    1705 MOH     0.0372 ****
10535 HC3    -8.034811   27.642247    8.373417 H    1705 MOH     0.0372 ****
10536 O1     -7.254810   29.478956    8.754547 O    1705 MOH    -0.6497 ****
10537 HO1    -7.072945   30.025192    9.522465 H    1705 MOH     0.4215 ****
10538 HC1   -14.392592   25.748383    4.640600 H    1706 MOH     0.0372 ****
10539 C1    -15.316929   26.263592    4.378971 C    1706 MOH     0.1166 ****
10540 HC2   -16.029957   26.216644    5.202750 H    1706 MOH     0.0372 ****
10541 HC3   -15.752829   25.817377    3.485895 H    1706 MOH     0.0372 ****
10542 O1    -15.079061   27.612853    4.099663 O    1706 MOH    -0.6497 ****
10543 HO1   -14.574457   27.643063    3.283662 H    1706 MOH     0.4215 ****
10544 HC1   -24.133068   15.528704    5.180123 H    1707 MOH     0.0372 ****
10545 C1    -23.619226   15.837748    6.090169 C    1707 MOH     0.1166 ****
10546 HC2   -22.536117   15.811620    5.974203 H    1707 MOH     0.0372 ****
10547 HC3   -23.922335   15.198431    6.920312 H    1707 MOH     0.0372 ****
10548 O1    -24.058590   17.095152    6.373012 O    1707 MOH    -0.6497 ****
10549 HO1   -24.390566   17.457268    5.547818 H    1707 MOH     0.4215 ****
10550 HC1   -22.281506   18.737535    8.913646 H    1708 MOH     0.0372 ****
10551 C1    -23.163697   19.320922    9.174569 C    1708 MOH     0.1166 ****
10552 HC2   -22.859433   20.319497    9.485696 H    1708 MOH     0.0372 ****
10553 HC3   -23.698901   18.831024    9.987742 H    1708 MOH     0.0372 ****
10554 O1    -23.984689   19.376035    8.007135 O    1708 MOH    -0.6497 ****
10555 HO1   -24.075333   18.487279    7.654289 H    1708 MOH     0.4215 ****
10556 HC1   -14.744775    9.745050   14.364733 H    1709 MOH     0.0372 ****
10557 C1    -13.907040    9.973261   13.705002 C    1709 MOH     0.1166 ****
10558 HC2   -13.549660   10.974694   13.940469 H    1709 MOH     0.0372 ****
10559 HC3   -14.257492    9.928354   12.674040 H    1709 MOH     0.0372 ****
10560 O1    -12.826241    9.031432   13.909356 O    1709 MOH    -0.6497 ****
10561 HO1   -11.993124    9.419676   13.631463 H    1709 MOH     0.4215 ****
10562 HC1   -20.551187   20.600372   13.980066 H    1710 MOH     0.0372 ****
10563 C1    -20.862956   21.643855   13.944711 C    1710 MOH     0.1166 ****
10564 HC2   -20.056975   22.301135   14.272809 H    1710 MOH     0.0372 ****
10565 HC3   -21.705888   21.767146   14.623534 H    1710 MOH     0.0372 ****
10566 O1    -21.316176   21.990049   12.650706 O    1710 MOH    -0.6497 ****
10567 HO1   -21.527486   22.925754   12.680404 H    1710 MOH     0.4215 ****
10568 HC1   -13.855079   28.613878   21.477520 H    1711 MOH     0.0372 ****
10569 C1    -12.929586   28.913532   21.971080 C    1711 MOH     0.1166 ****
10570 HC2   -12.485604   28.059477   22.483025 H    1711 MOH     0.0372 ****
10571 HC3   -13.175538   29.665525   22.720613 H    1711 MOH     0.0372 ****
10572 O1    -12.047395   29.412820   20.945068 O    1711 MOH    -0.6497 ****
10573 HO1   -12.237921   30.350974   20.870115 H    1711 MOH     0.4215 ****
10574 HC1   -24.825889   19.771220   14.796775 H    1712 MOH     0.0372 ****
10575 C1    -24.054549   19.478098   15.509538 C    1712 MOH     0.1166 ****
10576 HC2   -23.156769   19.221718   14.946681 H    1712 MOH     0.0372 ****
10577 HC3   -24.384793   18.589749   16.048354 H    1712 MOH     0.0372 ****
10578 O1    -23.794164   20.555465   16.418171 O    1712 MOH    -0.6497 ****
10579 HO1   -24.460426   20.530562   17.109014 H    1712 MOH     0.4215 ****
10580 HC1   -24.955215   20.381959   20.679903 H    1713 MOH     0.0372 ****
10581 C1    -24.471973   20.231316   19.714702 C    1713 MOH     0.1166 ****
10582 HC2   -24.016443   19.241722   19.694903 H    1713 MOH     0.0372 ****
10583 HC3   -23.711603   21.000455   19.576109 H    1713 MOH     0.0372 ****
10584 O1    -25.503120   20.280714   18.728288 O    1713 MOH    -0.6497 ****
10585 HO1   -26.015807   21.081697   18.858396 H    1713 MOH     0.4215 ****
10586 HC1   -29.255320   21.809604   14.346348 H    1714 MOH     0.0372 ****
10587 C1    -28.667577   22.725304   14.407866 C    1714 MOH     0.1166 ****
10588 HC2   -28.201656   22.935961   13.444786 H    1714 MOH     0.0372 ****
10589 HC3   -27.878917   22.576702   15.144671 H    1714 MOH     0.0372 ****
10590 O1    -29.449309   23.850029   14.783340 O    1714 MOH    -0.6497 ****
10591 HO1   -29.849413   23.685913   15.640353 H    1714 MOH     0.4215 ****
10592 HC1   -15.520157   24.417085   11.896223 H    1715 MOH     0.0372 ****
10593 C1    -14.738425   25.090287   11.544791 C    1715 MOH     0.1166 ****
10594 HC2   -14.178972   24.655502   10.716769 H    1715 MOH     0.0372 ****
10595 HC3   -14.053110   25.295227   12.366449 H    1715 MOH     0.0372 ****
10596 O1    -15.312311   26.289720   11.099313 O    1715 MOH    -0.6497 ****
10597 HO1   -15.117166   26.933120   11.785207 H    1715 MOH     0.4215 ****
10598 HC1    -4.391268   31.751511    7.352355 H    1716 MOH     0.0372 ****
10599 C1     -4.578330   30.765591    7.777326 C    1716 MOH     0.1166 ****
10600 HC2    -4.970351   30.860305    8.789903 H    1716 MOH     0.0372 ****
10601 HC3    -3.621083   30.249157    7.845915 H    1716 MOH     0.0372 ****
10602 O1     -5.419529   29.961750    6.928091 O    1716 MOH    -0.6497 ****
10603 HO1    -6.135444   29.615556    7.465492 H    1716 MOH     0.4215 ****
10604 HC1    -1.760861   32.223446   13.989259 H    1717 MOH     0.0372 ****
10605 C1     -2.609566   32.658230   14.517468 C    1717 MOH     0.1166 ****
10606 HC2    -2.745820   33.685383   14.179471 H    1717 MOH     0.0372 ****
10607 HC3    -2.445021   32.645983   15.595098 H    1717 MOH     0.0372 ****
10608 O1     -3.775236   31.960126   14.183713 O    1717 MOH    -0.6497 ****
10609 HO1    -3.748100   31.159551   14.713336 H    1717 MOH     0.4215 ****
10610 HC1     0.782367   31.646183   10.436754 H    1718 MOH     0.0372 ****
10611 C1      0.102249   31.077493   11.071029 C    1718 MOH     0.1166 ****
10612 HC2     0.456742   31.114644   12.101284 H    1718 MOH     0.0372 ****
10613 HC3     0.047400   30.040951   10.739396 H    1718 MOH     0.0372 ****
10614 O1     -1.130394   31.700480   10.989005 O    1718 MOH    -0.6497 ****
10615 HO1    -1.028203   32.593319   11.324881 H    1718 MOH     0.4215 ****
10616 HC1     1.112034   32.020547   15.665809 H    1719 MOH     0.0372 ****
10617 C1      0.945757   32.107503   16.739904 C    1719 MOH     0.1166 ****
10618 HC2     1.017926   33.163642   16.999412 H    1719 MOH     0.0372 ****
10619 HC3     1.732686   31.553510   17.252557 H    1719 MOH     0.0372 ****
10620 O1     -0.379839   31.588620   16.973957 O    1719 MOH    -0.6497 ****
10621 HO1    -0.691031   31.937264   17.812585 H    1719 MOH     0.4215 ****
10622 HC1    -7.188531   30.134848   17.743996 H    1720 MOH     0.0372 ****
10623 C1     -6.112350   30.143013   17.574290 C    1720 MOH     0.1166 ****
10624 HC2    -5.692039   31.003192   18.094014 H    1720 MOH     0.0372 ****
10625 HC3    -5.908545   30.203433   16.505145 H    1720 MOH     0.0372 ****
10626 O1     -5.518834   28.998284   18.074922 O    1720 MOH    -0.6497 ****
10627 HO1    -5.980714   28.737006   18.873953 H    1720 MOH     0.4215 ****
10628 HC1    -2.847434   33.916452   18.331602 H    1721 MOH     0.0372 ****
10629 C1     -2.596287   33.395935   19.255790 C    1721 MOH     0.1166 ****
10630 HC2    -3.263126   32.542288   19.376705 H    1721 MOH     0.0372 ****
10631 HC3    -2.719262   34.065870   20.106440 H    1721 MOH     0.0372 ****
10632 O1     -1.256257   32.965233   19.158917 O    1721 MOH    -0.6497 ****
10633 HO1    -1.066308   32.409607   19.917642 H    1721 MOH     0.4215 ****
10634 HC1     1.136860   33.488607   13.275788 H    1722 MOH     0.0372 ****
10635 C1      2.008082   33.991977   12.856474 C    1722 MOH     0.1166 ****
10636 HC2     1.710169   34.941155   12.413118 H    1722 MOH     0.0372 ****
10637 HC3     2.446868   33.380422   12.067343 H    1722 MOH     0.0372 ****
10638 O1      2.976876   34.267137   13.842181 O    1722 MOH    -0.6497 ****
10639 HO1     3.407002   33.429003   14.025321 H    1722 MOH     0.4215 ****
10640 HC1    -3.100891   28.023388   15.864506 H    1723 MOH     0.0372 ****
10641 C1     -2.519499   28.780688   16.391301 C    1723 MOH     0.1166 ****
10642 HC2    -1.465835   28.536556   16.254122 H    1723 MOH     0.0372 ****
10643 HC3    -2.749284   28.791303   17.456203 H    1723 MOH     0.0372 ****
10644 O1     -2.647671   30.040951   15.839050 O    1723 MOH    -0.6497 ****
10645 HO1    -1.849195   30.517376   16.080174 H    1723 MOH     0.4215 ****
10646 HC1    -2.880343   27.700871   11.201844 H    1724 MOH     0.0372 ****
10647 C1     -2.913252   28.785995   11.102849 C    1724 MOH     0.1166 ****
10648 HC2    -2.468115   29.255073   11.980369 H    1724 MOH     0.0372 ****
10649 HC3    -3.950750   29.111777   11.027896 H    1724 MOH     0.0372 ****
10650 O1     -2.227360   29.163217    9.937537 O    1724 MOH    -0.6497 ****
10651 HO1    -2.125746   30.116476    9.977842 H    1724 MOH     0.4215 ****
10652 HC1    -7.909641   30.219763   12.251190 H    1725 MOH     0.0372 ****
10653 C1     -6.874452   30.523908   12.094920 C    1725 MOH     0.1166 ****
10654 HC2    -6.285555   29.621271   11.927336 H    1725 MOH     0.0372 ****
10655 HC3    -6.501484   31.080759   12.953347 H    1725 MOH     0.0372 ****
10656 O1     -6.876761   31.255489   10.918294 O    1725 MOH    -0.6497 ****
10657 HO1    -6.239367   31.964616   11.027896 H    1725 MOH     0.4215 ****
10658 HC1     5.152909   35.411865   16.821929 H    1726 MOH     0.0372 ****
10659 C1      5.536847   36.008724   15.994614 C    1726 MOH     0.1166 ****
10660 HC2     6.224471   35.391453   15.416200 H    1726 MOH     0.0372 ****
10661 HC3     6.037987   36.870536   16.436556 H    1726 MOH     0.0372 ****
10662 O1      4.471635   36.448407   15.207604 O    1726 MOH    -0.6497 ****
10663 HO1     3.942205   35.692332   14.945974 H    1726 MOH     0.4215 ****
10664 HC1    -3.146501   26.147487   14.364733 H    1727 MOH     0.0372 ****
10665 C1     -2.308766   26.375697   13.705002 C    1727 MOH     0.1166 ****
10666 HC2    -1.951386   27.377130   13.940469 H    1727 MOH     0.0372 ****
10667 HC3    -2.659218   26.330790   12.674040 H    1727 MOH     0.0372 ****
10668 O1     -1.227966   25.433869   13.909356 O    1727 MOH    -0.6497 ****
10669 HO1    -0.394850   25.822113   13.631463 H    1727 MOH     0.4215 ****
10670 HC1   -27.209075  -19.552480    6.560537 H    1728 MOH     0.0372 ****
10671 C1    -27.147876  -18.772726    7.318555 C    1728 MOH     0.1166 ****
10672 HC2   -26.787609  -19.218533    8.246279 H    1728 MOH     0.0372 ****
10673 HC3   -28.140918  -18.347331    7.464219 H    1728 MOH     0.0372 ****
10674 O1    -26.276654  -17.750064    6.890755 O    1728 MOH    -0.6497 ****
10675 HO1   -25.389844  -18.110139    6.824287 H    1728 MOH     0.4215 ****
10676 HC1   -20.950598  -14.803328    0.779939 H    1729 MOH     0.0372 ****
10677 C1    -20.517008  -14.610227    1.760696 C    1729 MOH     0.1166 ****
10678 HC2   -20.231219  -13.559395    1.811607 H    1729 MOH     0.0372 ****
10679 HC3   -19.629043  -15.229539    1.887268 H    1729 MOH     0.0372 ****
10680 O1    -21.471368  -14.924986    2.768323 O    1729 MOH    -0.6497 ****
10681 HO1   -21.270450  -15.816600    3.061065 H    1729 MOH     0.4215 ****
10682 HC1   -24.957409  -25.185082   -0.215668 H    1730 MOH     0.0372 ****
10683 C1    -25.806114  -24.750298    0.312541 C    1730 MOH     0.1166 ****
10684 HC2   -25.942368  -23.723145   -0.025456 H    1730 MOH     0.0372 ****
10685 HC3   -25.641569  -24.762545    1.390172 H    1730 MOH     0.0372 ****
10686 O1    -26.971784  -25.448402   -0.021213 O    1730 MOH    -0.6497 ****
10687 HO1   -26.944648  -26.248977    0.508410 H    1730 MOH     0.4215 ****
10688 HC1   -16.880856  -16.414684   -3.835347 H    1731 MOH     0.0372 ****
10689 C1    -17.075423  -15.673305   -3.060358 C    1731 MOH     0.1166 ****
10690 HC2   -18.139479  -15.631256   -2.827720 H    1731 MOH     0.0372 ****
10691 HC3   -16.774046  -14.684936   -3.407548 H    1731 MOH     0.0372 ****
10692 O1    -16.405697  -16.003578   -1.849084 O    1731 MOH    -0.6497 ****
10693 HO1   -16.623358  -16.898050   -1.576848 H    1731 MOH     0.4215 ****
10694 HC1   -32.767226  -11.701866    2.631851 H    1732 MOH     0.0372 ****
10695 C1    -32.163318  -11.150322    3.352393 C    1732 MOH     0.1166 ****
10696 HC2   -31.351563  -11.785557    3.705946 H    1732 MOH     0.0372 ****
10697 HC3   -32.811682  -10.864548    4.181122 H    1732 MOH     0.0372 ****
10698 O1    -31.658713  -10.026415    2.696905 O    1732 MOH    -0.6497 ****
10699 HO1   -30.845804   -9.764728    3.136018 H    1732 MOH     0.4215 ****
10700 HC1   -26.063034  -18.109323   -9.829491 H    1733 MOH     0.0372 ****
10701 C1    -26.855159  -18.641678   -9.303404 C    1733 MOH     0.1166 ****
10702 HC2   -26.828024  -18.384074   -8.244865 H    1733 MOH     0.0372 ****
10703 HC3   -26.689459  -19.709248   -9.445533 H    1733 MOH     0.0372 ****
10704 O1    -28.083760  -18.226082   -9.859190 O    1733 MOH    -0.6497 ****
10705 HO1   -28.778313  -18.584932   -9.301283 H    1733 MOH     0.4215 ****
10706 HC1   -25.366750  -10.218291  -10.948842 H    1734 MOH     0.0372 ****
10707 C1    -24.829237   -9.875771  -11.833432 C    1734 MOH     0.1166 ****
10708 HC2   -25.157172  -10.449768  -12.700345 H    1734 MOH     0.0372 ****
10709 HC3   -23.769799  -10.060299  -11.655241 H    1734 MOH     0.0372 ****
10710 O1    -25.089622   -8.495075  -12.102133 O    1734 MOH    -0.6497 ****
10711 HO1   -24.830392   -8.290135  -13.002987 H    1734 MOH     0.4215 ****
10712 HC1   -21.997911  -12.050510   -2.306582 H    1735 MOH     0.0372 ****
10713 C1    -21.949414  -13.138083   -2.357494 C    1735 MOH     0.1166 ****
10714 HC2   -22.327578  -13.492851   -3.315624 H    1735 MOH     0.0372 ****
10715 HC3   -22.556209  -13.584707   -1.569777 H    1735 MOH     0.0372 ****
10716 O1    -20.612848  -13.572459   -2.283955 O    1735 MOH    -0.6497 ****
10717 HO1   -20.645180  -14.531843   -2.262742 H    1735 MOH     0.4215 ****
10718 HC1   -30.908158  -13.075213   -7.879998 H    1736 MOH     0.0372 ****
10719 C1    -30.862547  -13.530002   -8.869948 C    1736 MOH     0.1166 ****
10720 HC2   -29.945138  -14.108898   -8.978842 H    1736 MOH     0.0372 ****
10721 HC3   -30.872940  -12.752289   -9.632916 H    1736 MOH     0.0372 ****
10722 O1    -31.965864  -14.366502   -9.087029 O    1736 MOH    -0.6497 ****
10723 HO1   -31.706633  -15.254034   -8.829643 H    1736 MOH     0.4215 ****
10724 HC1   -22.801005  -17.632080   -9.384721 H    1737 MOH     0.0372 ****
10725 C1    -22.602397  -16.671472   -8.910253 C    1737 MOH     0.1166 ****
10726 HC2   -21.537763  -16.454284   -8.993691 H    1737 MOH     0.0372 ****
10727 HC3   -22.831605  -16.706582   -7.845350 H    1737 MOH     0.0372 ****
10728 O1    -23.395676  -15.675755   -9.561498 O    1737 MOH    -0.6497 ****
10729 HO1   -23.348333  -14.899675   -8.997934 H    1737 MOH     0.4215 ****
10730 HC1   -23.959747  -23.099342   -4.372748 H    1738 MOH     0.0372 ****
10731 C1    -23.912405  -22.375926   -3.558161 C    1738 MOH     0.1166 ****
10732 HC2   -24.705684  -21.648427   -3.729281 H    1738 MOH     0.0372 ****
10733 HC3   -22.951694  -21.862349   -3.604830 H    1738 MOH     0.0372 ****
10734 O1    -24.097734  -23.017692   -2.264156 O    1738 MOH    -0.6497 ****
10735 HO1   -24.289414  -22.342041   -1.608668 H    1738 MOH     0.4215 ****
10736 HC1   -17.201863  -14.384873   -0.053740 H    1739 MOH     0.0372 ****
10737 C1    -17.119302  -13.445086    0.492146 C    1739 MOH     0.1166 ****
10738 HC2   -17.946067  -12.789439    0.219203 H    1739 MOH     0.0372 ****
10739 HC3   -16.162055  -12.982949    0.247487 H    1739 MOH     0.0372 ****
10740 O1    -17.160293  -13.803120    1.833528 O    1739 MOH    -0.6497 ****
10741 HO1   -16.936281  -13.060108    2.397799 H    1739 MOH     0.4215 ****
10742 HC1   -29.294464   -9.760645   -0.310420 H    1740 MOH     0.0372 ****
10743 C1    -29.960149   -8.901691   -0.225567 C    1740 MOH     0.1166 ****
10744 HC2   -31.002266   -9.221757   -0.232638 H    1740 MOH     0.0372 ****
10745 HC3   -29.825049   -8.277071   -1.108037 H    1740 MOH     0.0372 ****
10746 O1    -29.734405   -8.104790    0.977928 O    1740 MOH    -0.6497 ****
10747 HO1   -29.807151   -8.671847    1.747968 H    1740 MOH     0.4215 ****
10748 HC1   -29.219986  -20.414701    8.639431 H    1741 MOH     0.0372 ****
10749 C1    -28.920341  -21.461858    8.624581 C    1741 MOH     0.1166 ****
10750 HC2   -28.286410  -21.650468    7.757668 H    1741 MOH     0.0372 ****
10751 HC3   -29.788099  -22.115871    8.545385 H    1741 MOH     0.0372 ****
10752 O1    -28.215396  -21.772943    9.818178 O    1741 MOH    -0.6497 ****
10753 HO1   -27.781229  -22.621283    9.699384 H    1741 MOH     0.4215 ****
10754 HC1   -22.414181  -25.762345   -3.768172 H    1742 MOH     0.0372 ****
10755 C1    -23.094299  -26.331035   -3.133897 C    1742 MOH     0.1166 ****
10756 HC2   -22.739806  -26.293884   -2.103643 H    1742 MOH     0.0372 ****
10757 HC3   -23.149148  -27.367577   -3.465530 H    1742 MOH     0.0372 ****
10758 O1    -24.326942  -25.708048   -3.215922 O    1742 MOH    -0.6497 ****
10759 HO1   -24.224751  -24.815209   -2.880046 H    1742 MOH     0.4215 ****
10760 HC1   -31.312881   -2.593030    5.546545 H    1743 MOH     0.0372 ****
10761 C1    -31.654672   -3.262557    4.757414 C    1743 MOH     0.1166 ****
10762 HC2   -32.152925   -4.138658    5.173193 H    1743 MOH     0.0372 ****
10763 HC3   -30.782296   -3.580582    4.186779 H    1743 MOH     0.0372 ****
10764 O1    -32.435827   -2.532609    3.835347 O    1743 MOH    -0.6497 ****
10765 HO1   -32.408691   -3.019649    3.008739 H    1743 MOH     0.4215 ****
10766 HC1   -28.546218  -19.298958    1.215516 H    1744 MOH     0.0372 ****
10767 C1    -28.686514  -19.453276    0.146371 C    1744 MOH     0.1166 ****
10768 HC2   -28.882813  -18.498791   -0.342947 H    1744 MOH     0.0372 ****
10769 HC3   -29.520785  -20.132193   -0.029699 H    1744 MOH     0.0372 ****
10770 O1    -27.511029  -20.007677   -0.405172 O    1744 MOH    -0.6497 ****
10771 HO1   -26.864397  -20.108514    0.296985 H    1744 MOH     0.4215 ****
10772 HC1   -25.783020  -11.262591    2.505986 H    1745 MOH     0.0372 ****
10773 C1    -25.300355  -12.228506    2.358908 C    1745 MOH     0.1166 ****
10774 HC2   -26.073427  -12.982541    2.211123 H    1745 MOH     0.0372 ****
10775 HC3   -24.735706  -12.471005    3.258348 H    1745 MOH     0.0372 ****
10776 O1    -24.392183  -12.200745    1.236023 O    1745 MOH    -0.6497 ****
10777 HO1   -23.680887  -11.596538    1.465125 H    1745 MOH     0.4215 ****
10778 HC1   -31.090023  -19.505124   -6.153243 H    1746 MOH     0.0372 ****
10779 C1    -31.251104  -20.517988   -5.784841 C    1746 MOH     0.1166 ****
10780 HC2   -32.002237  -20.473080   -4.997124 H    1746 MOH     0.0372 ****
10781 HC3   -30.326189  -20.918479   -5.369769 H    1746 MOH     0.0372 ****
10782 O1    -31.702592  -21.364695   -6.841258 O    1746 MOH    -0.6497 ****
10783 HO1   -31.297869  -22.222832   -6.691352 H    1746 MOH     0.4215 ****
10784 HC1   -22.084514  -25.387981    1.460883 H    1747 MOH     0.0372 ****
10785 C1    -22.250791  -25.301024    2.534978 C    1747 MOH     0.1166 ****
10786 HC2   -22.178622  -24.244886    2.794486 H    1747 MOH     0.0372 ****
10787 HC3   -21.463862  -25.855017    3.047630 H    1747 MOH     0.0372 ****
10788 O1    -23.576387  -25.819908    2.769030 O    1747 MOH    -0.6497 ****
10789 HO1   -23.887579  -25.471264    3.607659 H    1747 MOH     0.4215 ****
10790 HC1   -23.218430   -7.990889   10.641957 H    1748 MOH     0.0372 ****
10791 C1    -23.929725   -8.816775   10.631350 C    1748 MOH     0.1166 ****
10792 HC2   -23.567727   -9.547948    9.907980 H    1748 MOH     0.0372 ****
10793 HC3   -24.918726   -8.444453   10.361235 H    1748 MOH     0.0372 ****
10794 O1    -23.993234   -9.390364   11.916163 O    1748 MOH    -0.6497 ****
10795 HO1   -24.269207   -8.706548   12.530639 H    1748 MOH     0.4215 ****
10796 HC1   -27.288749   -6.461182   -6.366083 H    1749 MOH     0.0372 ****
10797 C1    -27.869563   -6.079879   -5.526040 C    1749 MOH     0.1166 ****
10798 HC2   -27.572228   -5.072730   -5.234005 H    1749 MOH     0.0372 ****
10799 HC3   -27.661717   -6.735117   -4.679633 H    1749 MOH     0.0372 ****
10800 O1    -29.248853   -6.123561   -5.811004 O    1749 MOH    -0.6497 ****
10801 HO1   -29.654153   -6.798396   -5.261582 H    1749 MOH     0.4215 ****
10802 HC1   -22.490968  -19.249968    0.279307 H    1750 MOH     0.0372 ****
10803 C1    -22.507712  -20.257117   -0.138593 C    1750 MOH     0.1166 ****
10804 HC2   -22.005994  -20.915621    0.569221 H    1750 MOH     0.0372 ****
10805 HC3   -21.956342  -20.285694   -1.079045 H    1750 MOH     0.0372 ****
10806 O1    -23.850628  -20.692718   -0.287793 O    1750 MOH    -0.6497 ****
10807 HO1   -24.342531  -20.431847    0.494975 H    1750 MOH     0.4215 ****
10808 HC1   -28.356270  -15.458975   -0.589020 H    1751 MOH     0.0372 ****
10809 C1    -29.419749  -15.258117   -0.720542 C    1751 MOH     0.1166 ****
10810 HC2   -30.001718  -16.179125   -0.693672 H    1751 MOH     0.0372 ****
10811 HC3   -29.584871  -14.787406   -1.689985 H    1751 MOH     0.0372 ****
10812 O1    -29.870082  -14.367727    0.258801 O    1751 MOH    -0.6497 ****
10813 HO1   -29.759808  -13.473255   -0.071418 H    1751 MOH     0.4215 ****
10814 HC1   -24.643330  -12.531426   -3.385627 H    1752 MOH     0.0372 ****
10815 C1    -25.047475  -12.185640   -4.336686 C    1752 MOH     0.1166 ****
10816 HC2   -25.980473  -12.709014   -4.548818 H    1752 MOH     0.0372 ****
10817 HC3   -24.326365  -12.330568   -5.140666 H    1752 MOH     0.0372 ****
10818 O1    -25.294004  -10.819641   -4.182537 O    1752 MOH    -0.6497 ****
10819 HO1   -24.469548  -10.364036   -3.994446 H    1752 MOH     0.4215 ****
10820 HC1   -28.875885  -23.787240    1.817971 H    1753 MOH     0.0372 ****
10821 C1    -29.061792  -23.201404    0.917824 C    1753 MOH     0.1166 ****
10822 HC2   -29.043894  -23.825207    0.024042 H    1753 MOH     0.0372 ****
10823 HC3   -28.314123  -22.415934    0.808930 H    1753 MOH     0.0372 ****
10824 O1    -30.304250  -22.613118    1.047225 O    1753 MOH    -0.6497 ****
10825 HO1   -30.602740  -22.502482    0.141421 H    1753 MOH     0.4215 ****
10826 HC1   -27.691162  -20.212210    3.237135 H    1754 MOH     0.0372 ****
10827 C1    -26.937143  -20.965836    3.009446 C    1754 MOH     0.1166 ****
10828 HC2   -27.423272  -21.855409    2.609931 H    1754 MOH     0.0372 ****
10829 HC3   -26.448127  -21.255284    3.939292 H    1754 MOH     0.0372 ****
10830 O1    -26.002990  -20.423682    2.064752 O    1754 MOH    -0.6497 ****
10831 HO1   -25.786484  -19.525944    2.324260 H    1754 MOH     0.4215 ****
10832 HC1   -29.445730  -11.859450   -5.849187 H    1755 MOH     0.0372 ****
10833 C1    -29.683021  -12.146040   -4.823883 C    1755 MOH     0.1166 ****
10834 HC2   -28.920918  -12.808627   -4.414468 H    1755 MOH     0.0372 ****
10835 HC3   -30.636226  -12.674721   -4.842975 H    1755 MOH     0.0372 ****
10836 O1    -29.784634  -11.019683   -3.985961 O    1755 MOH    -0.6497 ****
10837 HO1   -29.010985  -10.463240   -4.105462 H    1755 MOH     0.4215 ****
10838 HC1   -32.348647  -22.436346    2.725189 H    1756 MOH     0.0372 ****
10839 C1    -32.260312  -21.450427    3.181273 C    1756 MOH     0.1166 ****
10840 HC2   -32.861334  -21.418583    4.089198 H    1756 MOH     0.0372 ****
10841 HC3   -32.612496  -20.715171    2.457903 H    1756 MOH     0.0372 ****
10842 O1    -30.920282  -21.246711    3.488865 O    1756 MOH    -0.6497 ****
10843 HO1   -30.435308  -21.713339    2.805092 H    1756 MOH     0.4215 ****
10844 HC1   -22.403788  -10.644094   -5.052278 H    1757 MOH     0.0372 ****
10845 C1    -21.983477   -9.760645   -4.571445 C    1757 MOH     0.1166 ****
10846 HC2   -21.730021   -9.018858   -5.328757 H    1757 MOH     0.0372 ****
10847 HC3   -21.096667  -10.043561   -4.005053 H    1757 MOH     0.0372 ****
10848 O1    -22.988644   -9.264215   -3.748373 O    1757 MOH    -0.6497 ****
10849 HO1   -22.632419   -9.067848   -2.879339 H    1757 MOH     0.4215 ****
10850 HC1   -28.052584   -8.336267    7.523616 H    1758 MOH     0.0372 ****
10851 C1    -28.095308   -7.462207    6.873785 C    1758 MOH     0.1166 ****
10852 HC2   -27.294523   -6.762061    7.112080 H    1758 MOH     0.0372 ****
10853 HC3   -29.034656   -6.946181    7.068946 H    1758 MOH     0.0372 ****
10854 O1    -28.094730   -7.816567    5.482199 O    1758 MOH    -0.6497 ****
10855 HO1   -27.985611   -7.024157    4.951161 H    1758 MOH     0.4215 ****
10856 HC1   -29.075648  -16.347731   -5.277845 H    1759 MOH     0.0372 ****
10857 C1    -29.061214  -15.640237   -6.107281 C    1759 MOH     0.1166 ****
10858 HC2   -30.051947  -15.209127   -6.248703 H    1759 MOH     0.0372 ****
10859 HC3   -28.722310  -16.133401   -7.018035 H    1759 MOH     0.0372 ****
10860 O1    -28.184219  -14.588589   -5.800397 O    1759 MOH    -0.6497 ****
10861 HO1   -27.987920  -14.581649   -4.860652 H    1759 MOH     0.4215 ****
10862 HC1   -22.944188  -20.182407    8.051825 H    1760 MOH     0.0372 ****
10863 C1    -22.869133  -19.140558    7.742112 C    1760 MOH     0.1166 ****
10864 HC2   -21.830480  -18.916021    7.498867 H    1760 MOH     0.0372 ****
10865 HC3   -23.231132  -18.539208    8.577205 H    1760 MOH     0.0372 ****
10866 O1    -23.757098  -18.982974    6.665896 O    1760 MOH    -0.6497 ****
10867 HO1   -23.389903  -19.503490    5.948182 H    1760 MOH     0.4215 ****
10868 HC1   -24.321746  -11.709214   -7.926667 H    1761 MOH     0.0372 ****
10869 C1    -23.578119  -12.230139   -8.529122 C    1761 MOH     0.1166 ****
10870 HC2   -22.662441  -11.640629   -8.577205 H    1761 MOH     0.0372 ****
10871 HC3   -23.914137  -12.351389   -9.559377 H    1761 MOH     0.0372 ****
10872 O1    -23.239792  -13.458966   -7.945052 O    1761 MOH    -0.6497 ****
10873 HO1   -23.943582  -13.730452   -7.351789 H    1761 MOH     0.4215 ****
10874 HC1   -23.605832  -17.386315   -3.266833 H    1762 MOH     0.0372 ****
10875 C1    -23.645092  -18.455925   -3.471894 C    1762 MOH     0.1166 ****
10876 HC2   -24.423360  -18.884178   -2.840448 H    1762 MOH     0.0372 ****
10877 HC3   -22.676298  -18.892343   -3.227943 H    1762 MOH     0.0372 ****
10878 O1    -23.933767  -18.747823   -4.840146 O    1762 MOH    -0.6497 ****
10879 HO1   -23.504218  -19.562278   -5.112382 H    1762 MOH     0.4215 ****
10880 HC1   -19.444291  -18.706182   -5.513312 H    1763 MOH     0.0372 ****
10881 C1    -19.966793  -17.777009   -5.285623 C    1763 MOH     0.1166 ****
10882 HC2   -20.999095  -17.990114   -5.007023 H    1763 MOH     0.0372 ****
10883 HC3   -19.926378  -17.130752   -6.161729 H    1763 MOH     0.0372 ****
10884 O1    -19.279169  -17.213626   -4.219306 O    1763 MOH    -0.6497 ****
10885 HO1   -18.816711  -17.928877   -3.776657 H    1763 MOH     0.4215 ****
10886 HC1   -26.043982  -23.492076    4.126675 H    1764 MOH     0.0372 ****
10887 C1    -25.792835  -24.012593    5.050864 C    1764 MOH     0.1166 ****
10888 HC2   -26.459674  -24.866240    5.171779 H    1764 MOH     0.0372 ****
10889 HC3   -25.915810  -23.342657    5.901513 H    1764 MOH     0.0372 ****
10890 O1    -24.452805  -24.443295    4.953990 O    1764 MOH    -0.6497 ****
10891 HO1   -24.262856  -24.998921    5.712716 H    1764 MOH     0.4215 ****
10892 HC1   -24.571161  -16.561653   -5.894442 H    1765 MOH     0.0372 ****
10893 C1    -25.508201  -16.305682   -6.387296 C    1765 MOH     0.1166 ****
10894 HC2   -26.346513  -16.637588   -5.774234 H    1765 MOH     0.0372 ****
10895 HC3   -25.526676  -16.804561   -7.356032 H    1765 MOH     0.0372 ****
10896 O1    -25.538800  -14.922128   -6.604377 O    1765 MOH    -0.6497 ****
10897 HO1   -26.455055  -14.680854   -6.756405 H    1765 MOH     0.4215 ****
10898 HC1   -27.900740  -21.271614   -7.602105 H    1766 MOH     0.0372 ****
10899 C1    -27.595322  -22.251818   -7.969094 C    1766 MOH     0.1166 ****
10900 HC2   -26.646158  -22.172210   -8.498717 H    1766 MOH     0.0372 ****
10901 HC3   -28.362043  -22.644145   -8.635895 H    1766 MOH     0.0372 ****
10902 O1    -27.441747  -23.172418   -6.894998 O    1766 MOH    -0.6497 ****
10903 HO1   -26.592465  -23.606386   -7.003186 H    1766 MOH     0.4215 ****
10904 HC1   -22.059688  -23.919921   -0.929138 H    1767 MOH     0.0372 ****
10905 C1    -21.188466  -23.416550   -1.348453 C    1767 MOH     0.1166 ****
10906 HC2   -21.486379  -22.467373   -1.791809 H    1767 MOH     0.0372 ****
10907 HC3   -20.749680  -24.028106   -2.137584 H    1767 MOH     0.0372 ****
10908 O1    -20.219672  -23.141391   -0.362746 O    1767 MOH    -0.6497 ****
10909 HO1   -19.789547  -23.979525   -0.179605 H    1767 MOH     0.4215 ****
10910 HC1   -32.087685  -14.590222    8.032026 H    1768 MOH     0.0372 ****
10911 C1    -31.479735  -13.719429    7.783831 C    1768 MOH     0.1166 ****
10912 HC2   -30.430112  -13.988873    7.669280 H    1768 MOH     0.0372 ****
10913 HC3   -31.536315  -12.997237    8.599125 H    1768 MOH     0.0372 ****
10914 O1    -31.874642  -13.157271    6.573972 O    1768 MOH    -0.6497 ****
10915 HO1   -31.592895  -13.755763    5.878178 H    1768 MOH     0.4215 ****
10916 HC1   -30.614864  -17.596155  -12.677011 H    1769 MOH     0.0372 ****
10917 C1    -29.691103  -17.407952  -13.225018 C    1769 MOH     0.1166 ****
10918 HC2   -29.100474  -18.322837  -13.187542 H    1769 MOH     0.0372 ****
10919 HC3   -29.168602  -16.584515  -12.737822 H    1769 MOH     0.0372 ****
10920 O1    -29.964190  -17.055634  -14.579128 O    1769 MOH    -0.6497 ****
10921 HO1   -29.182458  -16.633505  -14.942581 H    1769 MOH     0.4215 ****
10922 HC1   -26.507017   -8.340349   -2.655893 H    1770 MOH     0.0372 ****
10923 C1    -27.521999   -8.723694   -2.759838 C    1770 MOH     0.1166 ****
10924 HC2   -28.243109   -7.906381   -2.738625 H    1770 MOH     0.0372 ****
10925 HC3   -27.756980   -9.418533   -1.953736 H    1770 MOH     0.0372 ****
10926 O1    -27.649593   -9.435679   -3.942121 O    1770 MOH    -0.6497 ****
10927 HO1   -26.929060  -10.068873   -3.973940 H    1770 MOH     0.4215 ****
10928 HC1   -33.028188  -22.334284   -1.766353 H    1771 MOH     0.0372 ****
10929 C1    -32.171400  -22.592297   -2.390021 C    1771 MOH     0.1166 ****
10930 HC2   -31.985494  -21.799071   -3.113391 H    1771 MOH     0.0372 ****
10931 HC3   -32.417352  -23.496159   -2.947221 H    1771 MOH     0.0372 ****
10932 O1    -31.008040  -22.782949   -1.588869 O    1771 MOH    -0.6497 ****
10933 HO1   -30.311755  -23.130777   -2.150312 H    1771 MOH     0.4215 ****
10934 HC1   -26.973516  -22.674355   -2.583061 H    1772 MOH     0.0372 ****
10935 C1    -27.471769  -23.450027   -3.162889 C    1772 MOH     0.1166 ****
10936 HC2   -26.744885  -24.195488   -3.485329 H    1772 MOH     0.0372 ****
10937 HC3   -27.934227  -22.976051   -4.029095 H    1772 MOH     0.0372 ****
10938 O1    -28.446914  -24.080770   -2.365979 O    1772 MOH    -0.6497 ****
10939 HO1   -27.975219  -24.449827   -1.616446 H    1772 MOH     0.4215 ****
10940 HC1   -23.632967  -16.622482    4.603972 H    1773 MOH     0.0372 ****
10941 C1    -24.255351  -15.728010    4.594780 C    1773 MOH     0.1166 ****
10942 HC2   -23.811369  -14.940908    5.204306 H    1773 MOH     0.0372 ****
10943 HC3   -25.227031  -16.006027    5.004195 H    1773 MOH     0.0372 ****
10944 O1    -24.434907  -15.275263    3.273197 O    1773 MOH    -0.6497 ****
10945 HO1   -23.577542  -14.999695    2.940150 H    1773 MOH     0.4215 ****
10946 HC1   -27.649016  -10.975592   -6.876614 H    1774 MOH     0.0372 ****
10947 C1    -27.056077  -11.314030   -7.725849 C    1774 MOH     0.1166 ****
10948 HC2   -26.688882  -12.309747   -7.477654 H    1774 MOH     0.0372 ****
10949 HC3   -26.209104  -10.644094   -7.877877 H    1774 MOH     0.0372 ****
10950 O1    -27.860326  -11.365061   -8.896111 O    1774 MOH    -0.6497 ****
10951 HO1   -27.453294  -12.015400   -9.473817 H    1774 MOH     0.4215 ****
10952 HC1   -31.892540  -10.654709   -1.214103 H    1775 MOH     0.0372 ****
10953 C1    -31.711252  -11.692884   -0.934795 C    1775 MOH     0.1166 ****
10954 HC2   -32.370586  -12.330160   -1.523815 H    1775 MOH     0.0372 ****
10955 HC3   -31.935841  -11.847610    0.120915 H    1775 MOH     0.0372 ****
10956 O1    -30.381037  -12.088477   -1.175919 O    1775 MOH    -0.6497 ****
10957 HO1   -30.201481  -11.980291   -2.112835 H    1775 MOH     0.4215 ****
10958 HC1   -28.004086  -16.442853    2.444468 H    1776 MOH     0.0372 ****
10959 C1    -27.550289  -15.563486    2.901259 C    1776 MOH     0.1166 ****
10960 HC2   -26.713131  -15.246686    2.279005 H    1776 MOH     0.0372 ****
10961 HC3   -27.246603  -15.812518    3.918079 H    1776 MOH     0.0372 ****
10962 O1    -28.500607  -14.565727    2.865904 O    1776 MOH    -0.6497 ****
10963 HO1   -28.828542  -14.510206    1.965050 H    1776 MOH     0.4215 ****
10964 HC1   -20.641138  -13.123794    7.821308 H    1777 MOH     0.0372 ****
10965 C1    -20.894018  -12.259125    8.435077 C    1777 MOH     0.1166 ****
10966 HC2   -20.086305  -12.075821    9.142891 H    1777 MOH     0.0372 ****
10967 HC3   -21.812005  -12.491826    8.973892 H    1777 MOH     0.0372 ****
10968 O1    -21.086275  -11.150730    7.578770 O    1777 MOH    -0.6497 ****
10969 HO1   -21.771590  -11.421807    6.963587 H    1777 MOH     0.4215 ****
10970 HC1   -24.381791  -20.383266    4.287188 H    1778 MOH     0.0372 ****
10971 C1    -23.559066  -21.074022    4.101926 C    1778 MOH     0.1166 ****
10972 HC2   -23.283670  -20.952772    3.054701 H    1778 MOH     0.0372 ****
10973 HC3   -23.867371  -22.113830    4.208699 H    1778 MOH     0.0372 ****
10974 O1    -22.469029  -20.763345    4.986517 O    1778 MOH    -0.6497 ****
10975 HO1   -21.858193  -21.503907    4.999245 H    1778 MOH     0.4215 ****
10976 HC1   -28.634553  -19.041762   -4.908028 H    1779 MOH     0.0372 ****
10977 C1    -27.707328  -19.218533   -4.364263 C    1779 MOH     0.1166 ****
10978 HC2   -27.773146  -20.143216   -3.790800 H    1779 MOH     0.0372 ****
10979 HC3   -27.483894  -18.382033   -3.701704 H    1779 MOH     0.0372 ****
10980 O1    -26.703893  -19.320595   -5.294816 O    1779 MOH    -0.6497 ****
10981 HO1   -25.893871  -18.979708   -4.908028 H    1779 MOH     0.4215 ****
10982 HC1   -30.731489  -18.897650  -10.180924 H    1780 MOH     0.0372 ****
10983 C1    -30.451474  -19.806003   -9.647058 C    1780 MOH     0.1166 ****
10984 HC2   -29.643183  -20.301616  -10.184459 H    1780 MOH     0.0372 ****
10985 HC3   -31.282281  -20.511864   -9.623723 H    1780 MOH     0.0372 ****
10986 O1    -30.013842  -19.544724   -8.327597 O    1780 MOH    -0.6497 ****
10987 HO1   -30.361407  -20.249360   -7.776053 H    1780 MOH     0.4215 ****
10988 HC1   -19.547637  -19.425515    3.222286 H    1781 MOH     0.0372 ****
10989 C1    -20.379021  -18.742107    3.052580 C    1781 MOH     0.1166 ****
10990 HC2   -21.301050  -19.202203    3.409669 H    1781 MOH     0.0372 ****
10991 HC3   -20.449458  -18.553905    1.981313 H    1781 MOH     0.0372 ****
10992 O1    -20.051086  -17.521445    3.704532 O    1781 MOH    -0.6497 ****
10993 HO1   -19.437940  -17.718629    4.416589 H    1781 MOH     0.4215 ****
10994 HC1   -27.041066  -17.196071   11.705446 H    1782 MOH     0.0372 ****
10995 C1    -27.932495  -16.569410   11.673626 C    1782 MOH     0.1166 ****
10996 HC2   -28.821037  -17.200154   11.633321 H    1782 MOH     0.0372 ****
10997 HC3   -27.923257  -15.951322   10.775600 H    1782 MOH     0.0372 ****
10998 O1    -27.922103  -15.721887   12.795097 O    1782 MOH    -0.6497 ****
10999 HO1   -27.166351  -15.141766   12.678424 H    1782 MOH     0.4215 ****
11000 HC1   -19.787814  -16.599212   -0.755190 H    1783 MOH     0.0372 ****
11001 C1    -20.797600  -16.920095   -1.011163 C    1783 MOH     0.1166 ****
11002 HC2   -21.495039  -16.489393   -0.292035 H    1783 MOH     0.0372 ****
11003 HC3   -20.879006  -18.006444   -0.976515 H    1783 MOH     0.0372 ****
11004 O1    -21.152670  -16.460816   -2.283248 O    1783 MOH    -0.6497 ****
11005 HO1   -20.553958  -16.868248   -2.912573 H    1783 MOH     0.4215 ****
11006 HC1   -25.384071  -15.934176   10.291939 H    1784 MOH     0.0372 ****
11007 C1    -25.159481  -14.868239   10.342144 C    1784 MOH     0.1166 ****
11008 HC2   -25.518593  -14.320370    9.470988 H    1784 MOH     0.0372 ****
11009 HC3   -24.073486  -14.821699   10.270019 H    1784 MOH     0.0372 ****
11010 O1    -25.520325  -14.270156   11.608572 O    1784 MOH    -0.6497 ****
11011 HO1   -25.592494  -13.321387   11.482707 H    1784 MOH     0.4215 ****
11012 HC1   -31.141985  -18.028081    6.741556 H    1785 MOH     0.0372 ****
11013 C1    -30.796729  -18.871114    6.144051 C    1785 MOH     0.1166 ****
11014 HC2   -30.056566  -19.403061    6.742970 H    1785 MOH     0.0372 ****
11015 HC3   -30.355056  -18.485319    5.225519 H    1785 MOH     0.0372 ****
11016 O1    -31.849239  -19.788856    5.810296 O    1785 MOH    -0.6497 ****
11017 HO1   -31.570379  -20.302024    5.048742 H    1785 MOH     0.4215 ****
11018 HC1   -23.984574   -9.490793    0.519016 H    1786 MOH     0.0372 ****
11019 C1    -24.477053   -9.054376   -0.350018 C    1786 MOH     0.1166 ****
11020 HC2   -25.419289   -8.566927   -0.099702 H    1786 MOH     0.0372 ****
11021 HC3   -24.729355   -9.888835   -1.004799 H    1786 MOH     0.0372 ****
11022 O1    -23.639318   -8.129285   -1.050054 O    1786 MOH    -0.6497 ****
11023 HO1   -24.180295   -7.429547   -1.421992 H    1786 MOH     0.4215 ****
11024 HC1   -17.643536  -20.890718   -1.820093 H    1787 MOH     0.0372 ****
11025 C1    -18.549398  -20.566161   -2.331331 C    1787 MOH     0.1166 ****
11026 HC2   -19.435053  -20.958896   -1.832114 H    1787 MOH     0.0372 ****
11027 HC3   -18.541893  -20.914397   -3.364414 H    1787 MOH     0.0372 ****
11028 O1    -18.642351  -19.174034   -2.317189 O    1787 MOH    -0.6497 ****
11029 HO1   -18.372152  -18.888669   -1.441084 H    1787 MOH     0.4215 ****
11030 HC1   -25.109252  -16.326911    0.164756 H    1788 MOH     0.0372 ****
11031 C1    -24.445876  -17.148714    0.434163 C    1788 MOH     0.1166 ****
11032 HC2   -23.429740  -16.762512    0.511945 H    1788 MOH     0.0372 ****
11033 HC3   -24.459733  -17.931326   -0.324562 H    1788 MOH     0.0372 ****
11034 O1    -24.824041  -17.575742    1.721098 O    1788 MOH    -0.6497 ****
11035 HO1   -24.770347  -16.806602    2.292440 H    1788 MOH     0.4215 ****
11036 HC1   -21.329340  -10.127660    4.268096 H    1789 MOH     0.0372 ****
11037 C1    -21.668822  -10.873530    3.548969 C    1789 MOH     0.1166 ****
11038 HC2   -22.175158  -11.710847    4.030509 H    1789 MOH     0.0372 ****
11039 HC3   -20.782012  -11.270347    3.053994 H    1789 MOH     0.0372 ****
11040 O1    -22.510021  -10.252992    2.594375 O    1789 MOH    -0.6497 ****
11041 HO1   -21.980591   -9.567952    2.178596 H    1789 MOH     0.4215 ****
11042 HC1   -30.622947  -17.363861   -4.712867 H    1790 MOH     0.0372 ****
11043 C1    -31.253413  -17.677396   -3.881309 C    1790 MOH     0.1166 ****
11044 HC2   -32.229713  -17.990114   -4.251833 H    1790 MOH     0.0372 ****
11045 HC3   -31.423732  -16.850285   -3.191173 H    1790 MOH     0.0372 ****
11046 O1    -30.651237  -18.731493   -3.185516 O    1790 MOH    -0.6497 ****
11047 HO1   -31.301911  -19.085853   -2.575990 H    1790 MOH     0.4215 ****
11048 HC1   -27.960785  -12.631447   -1.569070 H    1791 MOH     0.0372 ****
11049 C1    -27.304338  -12.355879   -0.743877 C    1791 MOH     0.1166 ****
11050 HC2   -27.851088  -12.391805    0.199404 H    1791 MOH     0.0372 ****
11051 HC3   -26.957927  -11.333217   -0.894490 H    1791 MOH     0.0372 ****
11052 O1    -26.185433  -13.227898   -0.678823 O    1791 MOH    -0.6497 ****
11053 HO1   -25.580370  -12.901299   -0.008485 H    1791 MOH     0.4215 ****
11054 HC1   -24.184337   -7.916588    6.198498 H    1792 MOH     0.0372 ****
11055 C1    -24.496106   -8.335450    7.155920 C    1792 MOH     0.1166 ****
11056 HC2   -25.023227   -7.589172    7.748476 H    1792 MOH     0.0372 ****
11057 HC3   -23.603522   -8.668989    7.684129 H    1792 MOH     0.0372 ****
11058 O1    -25.310747   -9.449560    6.928939 O    1792 MOH    -0.6497 ****
11059 HO1   -25.996639   -9.208285    6.303150 H    1792 MOH     0.4215 ****
11060 HC1   -29.347003  -10.992330    4.990759 H    1793 MOH     0.0372 ****
11061 C1    -28.765034  -10.749831    4.101219 C    1793 MOH     0.1166 ****
11062 HC2   -28.801407  -11.571634    3.386334 H    1793 MOH     0.0372 ****
11063 HC3   -27.737928  -10.606536    4.438509 H    1793 MOH     0.0372 ****
11064 O1    -29.230955   -9.505490    3.569475 O    1793 MOH    -0.6497 ****
11065 HO1   -28.815263   -8.828206    4.107583 H    1793 MOH     0.4215 ****
11066 HC1   -31.852703  -15.558587    2.662257 H    1794 MOH     0.0372 ****
11067 C1    -31.689890  -15.782716    3.716553 C    1794 MOH     0.1166 ****
11068 HC2   -31.122355  -16.709439    3.808477 H    1794 MOH     0.0372 ****
11069 HC3   -32.673695  -15.900291    4.170516 H    1794 MOH     0.0372 ****
11070 O1    -30.997070  -14.706165    4.308401 O    1794 MOH    -0.6497 ****
11071 HO1   -30.158757  -14.615534    3.850196 H    1794 MOH     0.4215 ****
11072 HC1   -32.130408  -15.663507   -6.673674 H    1795 MOH     0.0372 ****
11073 C1    -32.263776  -16.686169   -7.026520 C    1795 MOH     0.1166 ****
11074 HC2   -33.262592  -16.763736   -7.455027 H    1795 MOH     0.0372 ****
11075 HC3   -32.190453  -17.403053   -6.209105 H    1795 MOH     0.0372 ****
11076 O1    -31.343480  -16.963370   -8.038390 O    1795 MOH    -0.6497 ****
11077 HO1   -31.227433  -17.911322   -8.130314 H    1795 MOH     0.4215 ****
11078 HC1   -29.943406  -24.938092   -7.715949 H    1796 MOH     0.0372 ****
11079 C1    -30.680105  -24.592306   -6.991165 C    1796 MOH     0.1166 ****
11080 HC2   -30.950882  -25.400229   -6.310221 H    1796 MOH     0.0372 ****
11081 HC3   -31.588854  -24.292651   -7.511595 H    1796 MOH     0.0372 ****
11082 O1    -30.240164  -23.510856   -6.197084 O    1796 MOH    -0.6497 ****
11083 HO1   -29.292732  -23.579442   -6.061319 H    1796 MOH     0.4215 ****
11084 HC1   -28.994819   -8.382807   -7.363810 H    1797 MOH     0.0372 ****
11085 C1    -29.842369   -9.047435   -7.194105 C    1797 MOH     0.1166 ****
11086 HC2   -30.707817   -8.403628   -7.037834 H    1797 MOH     0.0372 ****
11087 HC3   -29.609697   -9.649193   -6.315878 H    1797 MOH     0.0372 ****
11088 O1    -29.975737   -9.749214   -8.409621 O    1797 MOH    -0.6497 ****
11089 HO1   -29.129919  -10.155013   -8.614682 H    1797 MOH     0.4215 ****
11090 HC1   -18.043639  -21.996663    2.617002 H    1798 MOH     0.0372 ****
11091 C1    -17.659701  -21.399804    1.789687 C    1798 MOH     0.1166 ****
11092 HC2   -16.972077  -22.017075    1.211274 H    1798 MOH     0.0372 ****
11093 HC3   -17.158561  -20.537992    2.231629 H    1798 MOH     0.0372 ****
11094 O1    -18.724913  -20.960120    1.002677 O    1798 MOH    -0.6497 ****
11095 HO1   -19.254343  -21.716196    0.741048 H    1798 MOH     0.4215 ****
11096 HC1   -27.577424  -13.000503    7.217439 H    1799 MOH     0.0372 ****
11097 C1    -27.513916  -13.923553    6.641147 C    1799 MOH     0.1166 ****
11098 HC2   -26.482191  -14.127677    6.355476 H    1799 MOH     0.0372 ****
11099 HC3   -28.131103  -13.811693    5.750192 H    1799 MOH     0.0372 ****
11100 O1    -28.031799  -14.976833    7.406236 O    1799 MOH    -0.6497 ****
11101 HO1   -27.781806  -15.801495    6.981972 H    1799 MOH     0.4215 ****
11102 HC1   -32.965257   -7.376883   -4.113948 H    1800 MOH     0.0372 ****
11103 C1    -32.094035   -8.032122   -4.133039 C    1800 MOH     0.1166 ****
11104 HC2   -32.094613   -8.603669   -5.060763 H    1800 MOH     0.0372 ****
11105 HC3   -32.121748   -8.741249   -3.305017 H    1800 MOH     0.0372 ****
11106 O1    -30.915664   -7.247469   -4.059500 O    1800 MOH    -0.6497 ****
11107 HO1   -30.945108   -6.736750   -3.247035 H    1800 MOH     0.4215 ****
11108 HC1   -18.151604  -16.540016    1.352695 H    1801 MOH     0.0372 ****
11109 C1    -17.511322  -17.415301    1.461590 C    1801 MOH     0.1166 ****
11110 HC2   -17.661433  -17.816200    2.464267 H    1801 MOH     0.0372 ****
11111 HC3   -16.472669  -17.102582    1.355524 H    1801 MOH     0.0372 ****
11112 O1    -17.890641  -18.357129    0.458205 O    1801 MOH    -0.6497 ****
11113 HO1   -17.961656  -19.230372    0.850649 H    1801 MOH     0.4215 ****
11114 HC1   -20.015868  -14.326494    5.773527 H    1802 MOH     0.0372 ****
11115 C1    -19.157348  -13.964786    5.207841 C    1802 MOH     0.1166 ****
11116 HC2   -19.505490  -13.445494    4.315473 H    1802 MOH     0.0372 ****
11117 HC3   -18.528036  -14.805369    4.914392 H    1802 MOH     0.0372 ****
11118 O1    -18.407947  -13.075213    6.003336 O    1802 MOH    -0.6497 ****
11119 HO1   -18.240516  -13.493667    6.851158 H    1802 MOH     0.4215 ****
11120 HC1   -19.216815  -13.005403   -4.158495 H    1803 MOH     0.0372 ****
11121 C1    -19.663684  -12.591439   -5.062178 C    1803 MOH     0.1166 ****
11122 HC2   -20.691368  -12.272597   -4.890351 H    1803 MOH     0.0372 ****
11123 HC3   -19.633085  -13.363845   -5.831510 H    1803 MOH     0.0372 ****
11124 O1    -18.853084  -11.527135   -5.450379 O    1803 MOH    -0.6497 ****
11125 HO1   -18.671219  -10.980899   -4.682461 H    1803 MOH     0.4215 ****
11126 HC1   -25.990866  -15.257708   -9.564326 H    1804 MOH     0.0372 ****
11127 C1    -26.915203  -14.742499   -9.825956 C    1804 MOH     0.1166 ****
11128 HC2   -27.628231  -14.789448   -9.002177 H    1804 MOH     0.0372 ****
11129 HC3   -27.351103  -15.188714  -10.719032 H    1804 MOH     0.0372 ****
11130 O1    -26.677335  -13.393238  -10.105263 O    1804 MOH    -0.6497 ****
11131 HO1   -26.172731  -13.363028  -10.921264 H    1804 MOH     0.4215 ****
11132 HC1   -27.434242  -10.178283   11.074706 H    1805 MOH     0.0372 ****
11133 C1    -26.996610  -11.081736   10.649735 C    1805 MOH     0.1166 ****
11134 HC2   -26.752968  -10.886594    9.606045 H    1805 MOH     0.0372 ****
11135 HC3   -27.702132  -11.908031   10.743073 H    1805 MOH     0.0372 ****
11136 O1    -25.860385  -11.379349   11.397147 O    1805 MOH    -0.6497 ****
11137 HO1   -25.232805  -10.653484   11.349064 H    1805 MOH     0.4215 ****
11138 HC1   -30.654124  -17.376109   10.441846 H    1806 MOH     0.0372 ****
11139 C1    -31.064620  -18.332634   10.764993 C    1806 MOH     0.1166 ****
11140 HC2   -30.285774  -19.095242   10.786207 H    1806 MOH     0.0372 ****
11141 HC3   -31.849816  -18.611468   10.062836 H    1806 MOH     0.0372 ****
11142 O1    -31.660446  -18.188114   12.020815 O    1806 MOH    -0.6497 ****
11143 HO1   -31.039794  -17.739041   12.599228 H    1806 MOH     0.4215 ****
11144 HC1   -32.149461  -20.405719   -0.224860 H    1807 MOH     0.0372 ****
11145 C1    -32.461230  -19.362237   -0.260215 C    1807 MOH     0.1166 ****
11146 HC2   -31.655249  -18.704957    0.067882 H    1807 MOH     0.0372 ****
11147 HC3   -33.304162  -19.238946    0.418607 H    1807 MOH     0.0372 ****
11148 O1    -32.914450  -19.016042   -1.554221 O    1807 MOH    -0.6497 ****
11149 HO1   -33.125760  -18.080337   -1.524522 H    1807 MOH     0.4215 ****
11150 HC1   -25.453353  -12.392214    7.272593 H    1808 MOH     0.0372 ****
11151 C1    -24.527860  -12.092559    7.766154 C    1808 MOH     0.1166 ****
11152 HC2   -24.083878  -12.946615    8.278099 H    1808 MOH     0.0372 ****
11153 HC3   -24.773811  -11.340566    8.515687 H    1808 MOH     0.0372 ****
11154 O1    -23.645669  -11.593272    6.740142 O    1808 MOH    -0.6497 ****
11155 HO1   -23.836195  -10.655117    6.665188 H    1808 MOH     0.4215 ****
11156 HC1   -27.036447   -8.523244    2.620538 H    1809 MOH     0.0372 ****
11157 C1    -26.090747   -8.180316    3.040559 C    1809 MOH     0.1166 ****
11158 HC2   -26.204485   -7.205827    3.516442 H    1809 MOH     0.0372 ****
11159 HC3   -25.360977   -8.066823    2.238700 H    1809 MOH     0.0372 ****
11160 O1    -25.649074   -9.102549    4.012831 O    1809 MOH    -0.6497 ****
11161 HO1   -24.817690   -9.490793    3.730695 H    1809 MOH     0.4215 ****
11162 HC1   -27.118431  -16.589006   -2.308704 H    1810 MOH     0.0372 ****
11163 C1    -26.336699  -15.915805   -2.660136 C    1810 MOH     0.1166 ****
11164 HC2   -25.777246  -16.350589   -3.488158 H    1810 MOH     0.0372 ****
11165 HC3   -25.651384  -15.710864   -1.838478 H    1810 MOH     0.0372 ****
11166 O1    -26.910585  -14.716371   -3.105613 O    1810 MOH    -0.6497 ****
11167 HO1   -26.715440  -14.072972   -2.419720 H    1810 MOH     0.4215 ****
11168 HC1   -22.218575    6.151893   -2.037175 H    1811 MOH     0.0372 ****
11169 C1    -23.254918    6.290698   -1.730291 C    1811 MOH     0.1166 ****
11170 HC2   -23.818412    6.654855   -2.588718 H    1811 MOH     0.0372 ****
11171 HC3   -23.324778    7.040650   -0.941867 H    1811 MOH     0.0372 ****
11172 O1    -23.780307    5.047990   -1.313098 O    1811 MOH    -0.6497 ****
11173 HO1   -24.542987    5.200267   -0.750948 H    1811 MOH     0.4215 ****
11174 HC1   -27.720145   -4.389077    2.054145 H    1812 MOH     0.0372 ****
11175 C1    -28.520930   -4.783037    2.679934 C    1812 MOH     0.1166 ****
11176 HC2   -29.086733   -5.513393    2.100814 H    1812 MOH     0.0372 ****
11177 HC3   -29.193543   -4.006140    3.041266 H    1812 MOH     0.0372 ****
11178 O1    -28.023832   -5.524008    3.724331 O    1812 MOH    -0.6497 ****
11179 HO1   -27.479390   -4.927965    4.243348 H    1812 MOH     0.4215 ****
11180 HC1   -15.610801   -3.150044    6.560537 H    1813 MOH     0.0372 ****
11181 C1    -15.549602   -2.370290    7.318555 C    1813 MOH     0.1166 ****
11182 HC2   -15.189335   -2.816097    8.246279 H    1813 MOH     0.0372 ****
11183 HC3   -16.542644   -1.944895    7.464219 H    1813 MOH     0.0372 ****
11184 O1    -14.678380   -1.347628    6.890755 O    1813 MOH    -0.6497 ****
11185 HO1   -13.791570   -1.707703    6.824287 H    1813 MOH     0.4215 ****
11186 HC1    -9.352324    1.599109    0.779939 H    1814 MOH     0.0372 ****
11187 C1     -8.918734    1.792210    1.760696 C    1814 MOH     0.1166 ****
11188 HC2    -8.632945    2.843041    1.811607 H    1814 MOH     0.0372 ****
11189 HC3    -8.030769    1.172897    1.887268 H    1814 MOH     0.0372 ****
11190 O1     -9.873094    1.477451    2.768323 O    1814 MOH    -0.6497 ****
11191 HO1    -9.672176    0.585836    3.061065 H    1814 MOH     0.4215 ****
11192 HC1   -15.989542   -9.254581   -6.852572 H    1815 MOH     0.0372 ****
11193 C1    -16.176604  -10.240500   -6.427601 C    1815 MOH     0.1166 ****
11194 HC2   -16.568625  -10.145787   -5.415024 H    1815 MOH     0.0372 ****
11195 HC3   -15.219357  -10.756934   -6.359011 H    1815 MOH     0.0372 ****
11196 O1    -17.017803  -11.044341   -7.276836 O    1815 MOH    -0.6497 ****
11197 HO1   -17.733718  -11.390536   -6.739435 H    1815 MOH     0.4215 ****
11198 HC1   -21.168952    4.700571    2.631851 H    1816 MOH     0.0372 ****
11199 C1    -20.565043    5.252114    3.352393 C    1816 MOH     0.1166 ****
11200 HC2   -19.753289    4.616880    3.705946 H    1816 MOH     0.0372 ****
11201 HC3   -21.213408    5.537888    4.181122 H    1816 MOH     0.0372 ****
11202 O1    -20.060439    6.376022    2.696905 O    1816 MOH    -0.6497 ****
11203 HO1   -19.247530    6.637709    3.136018 H    1816 MOH     0.4215 ****
11204 HC1   -14.464760   -1.706886   -9.829491 H    1817 MOH     0.0372 ****
11205 C1    -15.256885   -2.239242   -9.303404 C    1817 MOH     0.1166 ****
11206 HC2   -15.229749   -1.981637   -8.244865 H    1817 MOH     0.0372 ****
11207 HC3   -15.091185   -3.306811   -9.445533 H    1817 MOH     0.0372 ****
11208 O1    -16.485486   -1.823645   -9.859190 O    1817 MOH    -0.6497 ****
11209 HO1   -17.180039   -2.182495   -9.301283 H    1817 MOH     0.4215 ****
11210 HC1   -13.768476    6.184145  -10.948842 H    1818 MOH     0.0372 ****
11211 C1    -13.230963    6.526665  -11.833432 C    1818 MOH     0.1166 ****
11212 HC2   -13.558898    5.952668  -12.700345 H    1818 MOH     0.0372 ****
11213 HC3   -12.171525    6.342137  -11.655241 H    1818 MOH     0.0372 ****
11214 O1    -13.491348    7.907361  -12.102133 O    1818 MOH    -0.6497 ****
11215 HO1   -13.232117    8.112302  -13.002987 H    1818 MOH     0.4215 ****
11216 HC1   -23.107117   -0.620946    7.016620 H    1819 MOH     0.0372 ****
11217 C1    -24.127295   -0.913660    7.264815 C    1819 MOH     0.1166 ****
11218 HC2   -24.288375   -0.856097    8.340324 H    1819 MOH     0.0372 ****
11219 HC3   -24.335718   -1.935913    6.948031 H    1819 MOH     0.0372 ****
11220 O1    -25.013527   -0.021229    6.663774 O    1819 MOH    -0.6497 ****
11221 HO1   -24.562039    0.355176    5.904341 H    1819 MOH     0.4215 ****
11222 HC1   -19.309884    3.327224   -7.879998 H    1820 MOH     0.0372 ****
11223 C1    -19.264273    2.872435   -8.869948 C    1820 MOH     0.1166 ****
11224 HC2   -18.346864    2.293539   -8.978842 H    1820 MOH     0.0372 ****
11225 HC3   -19.274665    3.650148   -9.632916 H    1820 MOH     0.0372 ****
11226 O1    -20.367590    2.035934   -9.087029 O    1820 MOH    -0.6497 ****
11227 HO1   -20.108359    1.148402   -8.829643 H    1820 MOH     0.4215 ****
11228 HC1   -11.202731   -1.229644   -9.384721 H    1821 MOH     0.0372 ****
11229 C1    -11.004123   -0.269036   -8.910253 C    1821 MOH     0.1166 ****
11230 HC2    -9.939489   -0.051848   -8.993691 H    1821 MOH     0.0372 ****
11231 HC3   -11.233331   -0.304145   -7.845350 H    1821 MOH     0.0372 ****
11232 O1    -11.797402    0.726682   -9.561498 O    1821 MOH    -0.6497 ****
11233 HO1   -11.750059    1.502762   -8.997934 H    1821 MOH     0.4215 ****
11234 HC1   -28.508228    2.165757    3.220871 H    1822 MOH     0.0372 ****
11235 C1    -27.467843    2.193110    2.894895 C    1822 MOH     0.1166 ****
11236 HC2   -26.883565    1.553385    3.557454 H    1822 MOH     0.0372 ****
11237 HC3   -27.126629    3.226795    2.948635 H    1822 MOH     0.0372 ****
11238 O1    -27.400871    1.710969    1.571898 O    1822 MOH    -0.6497 ****
11239 HO1   -27.995541    0.958159    1.528057 H    1822 MOH     0.4215 ****
11240 HC1   -25.627828   -2.516442   -0.939038 H    1823 MOH     0.0372 ****
11241 C1    -24.713305   -2.210256   -1.446741 C    1823 MOH     0.1166 ****
11242 HC2   -24.118057   -1.555834   -0.809637 H    1823 MOH     0.0372 ****
11243 HC3   -24.988701   -1.664020   -2.349009 H    1823 MOH     0.0372 ****
11244 O1    -24.011247   -3.349677   -1.844842 O    1823 MOH    -0.6497 ****
11245 HO1   -23.076517   -3.150860   -1.755039 H    1823 MOH     0.4215 ****
11246 HC1   -28.682011   -2.854064   -5.794740 H    1824 MOH     0.0372 ****
11247 C1    -28.639287   -2.612381   -4.732666 C    1824 MOH     0.1166 ****
11248 HC2   -27.602366   -2.674435   -4.401740 H    1824 MOH     0.0372 ****
11249 HC3   -29.236844   -3.314160   -4.150717 H    1824 MOH     0.0372 ****
11250 O1    -29.072877   -1.318642   -4.463258 O    1824 MOH    -0.6497 ****
11251 HO1   -29.842485   -1.127174   -5.004195 H    1824 MOH     0.4215 ****
11252 HC1   -31.285283    1.083491    1.920502 H    1825 MOH     0.0372 ****
11253 C1    -31.720028    0.198000    2.383657 C    1825 MOH     0.1166 ****
11254 HC2   -32.132256   -0.476834    1.633416 H    1825 MOH     0.0372 ****
11255 HC3   -32.542175    0.484182    3.040559 H    1825 MOH     0.0372 ****
11256 O1    -30.814743   -0.504595    3.179152 O    1825 MOH    -0.6497 ****
11257 HO1   -31.341286   -1.222295    3.539776 H    1825 MOH     0.4215 ****
11258 HC1    -5.603589    2.017563   -0.053740 H    1826 MOH     0.0372 ****
11259 C1     -5.521027    2.957351    0.492146 C    1826 MOH     0.1166 ****
11260 HC2    -6.347793    3.612997    0.219203 H    1826 MOH     0.0372 ****
11261 HC3    -4.563781    3.419488    0.247487 H    1826 MOH     0.0372 ****
11262 O1     -5.562019    2.599317    1.833528 O    1826 MOH    -0.6497 ****
11263 HO1    -5.338007    3.342329    2.397799 H    1826 MOH     0.4215 ****
11264 HC1   -17.696190    6.641791   -0.310420 H    1827 MOH     0.0372 ****
11265 C1    -18.361875    7.500746   -0.225567 C    1827 MOH     0.1166 ****
11266 HC2   -19.403992    7.180679   -0.232638 H    1827 MOH     0.0372 ****
11267 HC3   -18.226775    8.125366   -1.108037 H    1827 MOH     0.0372 ****
11268 O1    -18.136131    8.297647    0.977928 O    1827 MOH    -0.6497 ****
11269 HO1   -18.208877    7.730590    1.747968 H    1827 MOH     0.4215 ****
11270 HC1   -17.621712   -4.012264    8.639431 H    1828 MOH     0.0372 ****
11271 C1    -17.322067   -5.059421    8.624581 C    1828 MOH     0.1166 ****
11272 HC2   -16.688136   -5.248032    7.757668 H    1828 MOH     0.0372 ****
11273 HC3   -18.189824   -5.713435    8.545385 H    1828 MOH     0.0372 ****
11274 O1    -16.617122   -5.370506    9.818178 O    1828 MOH    -0.6497 ****
11275 HO1   -16.182955   -6.218846    9.699384 H    1828 MOH     0.4215 ****
11276 HC1   -25.372639   -0.744645   -5.407953 H    1829 MOH     0.0372 ****
11277 C1    -25.913039    0.124924   -5.781305 C    1829 MOH     0.1166 ****
11278 HC2   -26.356444   -0.204532   -6.721050 H    1829 MOH     0.0372 ****
11279 HC3   -25.190196    0.927948   -5.927676 H    1829 MOH     0.0372 ****
11280 O1    -26.904349    0.463362   -4.787820 O    1829 MOH    -0.6497 ****
11281 HO1   -27.540012   -0.250664   -4.705089 H    1829 MOH     0.4215 ****
11282 HC1   -26.929175   -7.516668   -9.717062 H    1830 MOH     0.0372 ****
11283 C1    -26.516370   -6.509111   -9.753831 C    1830 MOH     0.1166 ****
11284 HC2   -26.601818   -6.038401   -8.774488 H    1830 MOH     0.0372 ****
11285 HC3   -27.093143   -5.921233  -10.468009 H    1830 MOH     0.0372 ****
11286 O1    -25.176917   -6.564633  -10.185166 O    1830 MOH    -0.6497 ****
11287 HO1   -25.143431   -7.225178  -10.880959 H    1830 MOH     0.4215 ****
11288 HC1   -20.755569   10.895739    2.423255 H    1831 MOH     0.0372 ****
11289 C1    -21.209944   11.193760    1.478560 C    1831 MOH     0.1166 ****
11290 HC2   -22.290743   11.059038    1.526643 H    1831 MOH     0.0372 ****
11291 HC3   -20.787323   10.569140    0.690843 H    1831 MOH     0.0372 ****
11292 O1    -20.928197   12.551185    1.219052 O    1831 MOH    -0.6497 ****
11293 HO1   -21.197819   12.745512    0.318198 H    1831 MOH     0.4215 ****
11294 HC1   -19.714606   13.809407    5.546545 H    1832 MOH     0.0372 ****
11295 C1    -20.056398   13.139880    4.757414 C    1832 MOH     0.1166 ****
11296 HC2   -20.554651   12.263779    5.173193 H    1832 MOH     0.0372 ****
11297 HC3   -19.184022   12.821854    4.186779 H    1832 MOH     0.0372 ****
11298 O1    -20.837553   13.869827    3.835347 O    1832 MOH    -0.6497 ****
11299 HO1   -20.810417   13.382787    3.008739 H    1832 MOH     0.4215 ****
11300 HC1   -16.947944   -2.896522    1.215516 H    1833 MOH     0.0372 ****
11301 C1    -17.088240   -3.050839    0.146371 C    1833 MOH     0.1166 ****
11302 HC2   -17.284539   -2.096355   -0.342947 H    1833 MOH     0.0372 ****
11303 HC3   -17.922511   -3.729756   -0.029699 H    1833 MOH     0.0372 ****
11304 O1    -15.912755   -3.605241   -0.405172 O    1833 MOH    -0.6497 ****
11305 HO1   -15.266123   -3.706078    0.296985 H    1833 MOH     0.4215 ****
11306 HC1   -14.184746    5.139846    2.505986 H    1834 MOH     0.0372 ****
11307 C1    -13.702081    4.173931    2.358908 C    1834 MOH     0.1166 ****
11308 HC2   -14.475153    3.419896    2.211123 H    1834 MOH     0.0372 ****
11309 HC3   -13.137432    3.931431    3.258348 H    1834 MOH     0.0372 ****
11310 O1    -12.793909    4.201691    1.236023 O    1834 MOH    -0.6497 ****
11311 HO1   -12.082613    4.805899    1.465125 H    1834 MOH     0.4215 ****
11312 HC1   -19.491749   -3.102687   -6.153243 H    1835 MOH     0.0372 ****
11313 C1    -19.652830   -4.115551   -5.784841 C    1835 MOH     0.1166 ****
11314 HC2   -20.403963   -4.070644   -4.997124 H    1835 MOH     0.0372 ****
11315 HC3   -18.727915   -4.516043   -5.369769 H    1835 MOH     0.0372 ****
11316 O1    -20.104318   -4.962258   -6.841258 O    1835 MOH    -0.6497 ****
11317 HO1   -19.699595   -5.820396   -6.691352 H    1835 MOH     0.4215 ****
11318 HC1   -11.620156    8.411548   10.641957 H    1836 MOH     0.0372 ****
11319 C1    -12.331451    7.585662   10.631350 C    1836 MOH     0.1166 ****
11320 HC2   -11.969453    6.854489    9.907980 H    1836 MOH     0.0372 ****
11321 HC3   -13.320452    7.957984   10.361235 H    1836 MOH     0.0372 ****
11322 O1    -12.394960    7.012073   11.916163 O    1836 MOH    -0.6497 ****
11323 HO1   -12.670933    7.695889   12.530639 H    1836 MOH     0.4215 ****
11324 HC1   -15.690475    9.941254   -6.366083 H    1837 MOH     0.0372 ****
11325 C1    -16.271289   10.322558   -5.526040 C    1837 MOH     0.1166 ****
11326 HC2   -15.973954   11.329707   -5.234005 H    1837 MOH     0.0372 ****
11327 HC3   -16.063443    9.667319   -4.679633 H    1837 MOH     0.0372 ****
11328 O1    -17.650579   10.278875   -5.811004 O    1837 MOH    -0.6497 ****
11329 HO1   -18.055879    9.604041   -5.261582 H    1837 MOH     0.4215 ****
11330 HC1   -27.112773   -0.415597    4.659833 H    1838 MOH     0.0372 ****
11331 C1    -27.504216   -1.184737    3.995153 C    1838 MOH     0.1166 ****
11332 HC2   -27.004808   -1.150852    3.027124 H    1838 MOH     0.0372 ****
11333 HC3   -28.575778   -1.022254    3.870702 H    1838 MOH     0.0372 ****
11334 O1    -27.363343   -2.451531    4.579930 O    1838 MOH    -0.6497 ****
11335 HO1   -27.809635   -2.451939    5.429166 H    1838 MOH     0.4215 ****
11336 HC1   -16.757996    0.943462   -0.589020 H    1839 MOH     0.0372 ****
11337 C1    -17.821475    1.144320   -0.720542 C    1839 MOH     0.1166 ****
11338 HC2   -18.403444    0.223312   -0.693672 H    1839 MOH     0.0372 ****
11339 HC3   -17.986597    1.615030   -1.689985 H    1839 MOH     0.0372 ****
11340 O1    -18.271808    2.034709    0.258801 O    1839 MOH    -0.6497 ****
11341 HO1   -18.161534    2.929181   -0.071418 H    1839 MOH     0.4215 ****
11342 HC1   -17.847456    4.542987   -5.849187 H    1840 MOH     0.0372 ****
11343 C1    -18.084747    4.256397   -4.823883 C    1840 MOH     0.1166 ****
11344 HC2   -17.322644    3.593810   -4.414468 H    1840 MOH     0.0372 ****
11345 HC3   -19.037952    3.727715   -4.842975 H    1840 MOH     0.0372 ****
11346 O1    -18.186360    5.382754   -3.985961 O    1840 MOH    -0.6497 ****
11347 HO1   -17.412711    5.939196   -4.105462 H    1840 MOH     0.4215 ****
11348 HC1   -20.156279  -10.439317    0.502753 H    1841 MOH     0.0372 ****
11349 C1    -20.563311   -9.438700    0.357796 C    1841 MOH     0.1166 ****
11350 HC2   -21.608893   -9.484424    0.052326 H    1841 MOH     0.0372 ****
11351 HC3   -20.006746   -8.981054   -0.458912 H    1841 MOH     0.0372 ****
11352 O1    -20.408581   -8.614855    1.514623 O    1841 MOH    -0.6497 ****
11353 HO1   -20.125680   -7.734672    1.254407 H    1841 MOH     0.4215 ****
11354 HC1   -20.750373   -6.033910    2.725189 H    1842 MOH     0.0372 ****
11355 C1    -20.662038   -5.047990    3.181273 C    1842 MOH     0.1166 ****
11356 HC2   -21.263060   -5.016147    4.089198 H    1842 MOH     0.0372 ****
11357 HC3   -21.014222   -4.312735    2.457903 H    1842 MOH     0.0372 ****
11358 O1    -19.322008   -4.844274    3.488865 O    1842 MOH    -0.6497 ****
11359 HO1   -18.837034   -5.310902    2.805092 H    1842 MOH     0.4215 ****
11360 HC1   -16.454310    8.066170    7.523616 H    1843 MOH     0.0372 ****
11361 C1    -16.497033    8.940229    6.873785 C    1843 MOH     0.1166 ****
11362 HC2   -15.696249    9.640375    7.112080 H    1843 MOH     0.0372 ****
11363 HC3   -17.436382    9.456255    7.068946 H    1843 MOH     0.0372 ****
11364 O1    -16.496456    8.585870    5.482199 O    1843 MOH    -0.6497 ****
11365 HO1   -16.387337    9.378280    4.951161 H    1843 MOH     0.4215 ****
11366 HC1   -18.786805  -10.871244    3.539069 H    1844 MOH     0.0372 ****
11367 C1    -17.710624  -10.863079    3.369364 C    1844 MOH     0.1166 ****
11368 HC2   -17.290313  -10.002900    3.889087 H    1844 MOH     0.0372 ****
11369 HC3   -17.506819  -10.802658    2.300218 H    1844 MOH     0.0372 ****
11370 O1    -17.117108  -12.007807    3.869995 O    1844 MOH    -0.6497 ****
11371 HO1   -17.578988  -12.269086    4.669026 H    1844 MOH     0.4215 ****
11372 HC1   -22.140632    3.796709   -3.862217 H    1845 MOH     0.0372 ****
11373 C1    -22.723179    2.923874   -3.566647 C    1845 MOH     0.1166 ****
11374 HC2   -22.387161    2.008990   -4.053843 H    1845 MOH     0.0372 ****
11375 HC3   -23.743357    3.103912   -3.903937 H    1845 MOH     0.0372 ****
11376 O1    -22.730107    2.776905   -2.163747 O    1845 MOH    -0.6497 ****
11377 HO1   -22.916591    3.638717   -1.782616 H    1845 MOH     0.4215 ****
11378 HC1   -22.971439    0.782204    0.408707 H    1846 MOH     0.0372 ****
11379 C1    -21.939714    0.498471    0.202939 C    1846 MOH     0.1166 ****
11380 HC2   -21.668937   -0.327415    0.859842 H    1846 MOH     0.0372 ****
11381 HC3   -21.291350    1.349261    0.413657 H    1846 MOH     0.0372 ****
11382 O1    -21.801728    0.179221   -1.158948 O    1846 MOH    -0.6497 ****
11383 HO1   -22.098486    0.972039   -1.611497 H    1846 MOH     0.4215 ****
11384 HC1   -17.477374    0.054705   -5.277845 H    1847 MOH     0.0372 ****
11385 C1    -17.462940    0.762200   -6.107281 C    1847 MOH     0.1166 ****
11386 HC2   -18.453673    1.193310   -6.248703 H    1847 MOH     0.0372 ****
11387 HC3   -17.124036    0.269036   -7.018035 H    1847 MOH     0.0372 ****
11388 O1    -16.585945    1.813847   -5.800397 O    1847 MOH    -0.6497 ****
11389 HO1   -16.389646    1.820787   -4.860652 H    1847 MOH     0.4215 ****
11390 HC1   -11.345914   -3.779971    8.051825 H    1848 MOH     0.0372 ****
11391 C1    -11.270859   -2.738121    7.742112 C    1848 MOH     0.1166 ****
11392 HC2   -10.232206   -2.513585    7.498867 H    1848 MOH     0.0372 ****
11393 HC3   -11.632857   -2.136771    8.577205 H    1848 MOH     0.0372 ****
11394 O1    -12.158824   -2.580537    6.665896 O    1848 MOH    -0.6497 ****
11395 HO1   -11.791629   -3.101054    5.948182 H    1848 MOH     0.4215 ****
11396 HC1   -21.621017   -7.692622    8.600540 H    1849 MOH     0.0372 ****
11397 C1    -20.628552   -7.671802    8.150113 C    1849 MOH     0.1166 ****
11398 HC2   -20.105473   -6.760592    8.440026 H    1849 MOH     0.0372 ****
11399 HC3   -20.688596   -7.727324    7.063997 H    1849 MOH     0.0372 ****
11400 O1    -19.893585   -8.736513    8.598418 O    1849 MOH    -0.6497 ****
11401 HO1   -20.340454   -9.532598    8.302848 H    1849 MOH     0.4215 ****
11402 HC1   -23.681003    4.536863    1.605839 H    1850 MOH     0.0372 ****
11403 C1    -23.920603    3.904078    2.460024 C    1850 MOH     0.1166 ****
11404 HC2   -24.966185    4.028594    2.740746 H    1850 MOH     0.0372 ****
11405 HC3   -23.288405    4.211489    3.293703 H    1850 MOH     0.0372 ****
11406 O1    -23.618649    2.554001    2.143948 O    1850 MOH    -0.6497 ****
11407 HO1   -24.081107    2.280883    1.348452 H    1850 MOH     0.4215 ****
11408 HC1   -26.274460   -3.401525   -7.493918 H    1851 MOH     0.0372 ****
11409 C1    -25.486377   -3.367232   -8.246280 C    1851 MOH     0.1166 ****
11410 HC2   -25.906688   -2.975722   -9.173296 H    1851 MOH     0.0372 ****
11411 HC3   -25.088583   -4.364991   -8.432956 H    1851 MOH     0.0372 ****
11412 O1    -24.480055   -2.467044   -7.896262 O    1851 MOH    -0.6497 ****
11413 HO1   -23.652713   -2.932039   -8.039804 H    1851 MOH     0.4215 ****
11414 HC1   -23.070743   -4.022062  -10.212036 H    1852 MOH     0.0372 ****
11415 C1    -22.640618   -4.591977   -9.387550 C    1852 MOH     0.1166 ****
11416 HC2   -21.865236   -5.235784   -9.802621 H    1852 MOH     0.0372 ****
11417 HC3   -23.385977   -5.240683   -8.927223 H    1852 MOH     0.0372 ****
11418 O1    -22.071350   -3.697505   -8.447805 O    1852 MOH    -0.6497 ****
11419 HO1   -21.656813   -4.236801   -7.771104 H    1852 MOH     0.4215 ****
11420 HC1   -12.723472    4.693222   -7.926667 H    1853 MOH     0.0372 ****
11421 C1    -11.979845    4.172297   -8.529122 C    1853 MOH     0.1166 ****
11422 HC2   -11.064167    4.761808   -8.577205 H    1853 MOH     0.0372 ****
11423 HC3   -12.315863    4.051048   -9.559377 H    1853 MOH     0.0372 ****
11424 O1    -11.641518    2.943470   -7.945052 O    1853 MOH    -0.6497 ****
11425 HO1   -12.345308    2.671985   -7.351789 H    1853 MOH     0.4215 ****
11426 HC1   -12.972887   -0.159217   -5.894442 H    1854 MOH     0.0372 ****
11427 C1    -13.909927    0.096755   -6.387296 C    1854 MOH     0.1166 ****
11428 HC2   -14.748239   -0.235151   -5.774234 H    1854 MOH     0.0372 ****
11429 HC3   -13.928402   -0.402125   -7.356032 H    1854 MOH     0.0372 ****
11430 O1    -13.940526    1.480308   -6.604377 O    1854 MOH    -0.6497 ****
11431 HO1   -14.856781    1.721583   -6.756405 H    1854 MOH     0.4215 ****
11432 HC1   -22.919478   -0.861404    3.347443 H    1855 MOH     0.0372 ****
11433 C1    -23.929263   -0.462137    3.439367 C    1855 MOH     0.1166 ****
11434 HC2   -24.541832   -1.203516    3.952727 H    1855 MOH     0.0372 ****
11435 HC3   -24.330522   -0.270260    2.443761 H    1855 MOH     0.0372 ****
11436 O1    -23.861136    0.726682    4.201628 O    1855 MOH    -0.6497 ****
11437 HO1   -23.526850    1.419888    3.627458 H    1855 MOH     0.4215 ****
11438 HC1   -16.302466   -4.869177   -7.602105 H    1856 MOH     0.0372 ****
11439 C1    -15.997048   -5.849382   -7.969094 C    1856 MOH     0.1166 ****
11440 HC2   -15.047884   -5.769773   -8.498717 H    1856 MOH     0.0372 ****
11441 HC3   -16.763769   -6.241708   -8.635895 H    1856 MOH     0.0372 ****
11442 O1    -15.843473   -6.769981   -6.894998 O    1856 MOH    -0.6497 ****
11443 HO1   -14.994191   -7.203949   -7.003186 H    1856 MOH     0.4215 ****
11444 HC1   -27.175704    6.374797    1.771302 H    1857 MOH     0.0372 ****
11445 C1    -26.313143    6.837751    1.291884 C    1857 MOH     0.1166 ****
11446 HC2   -25.526214    6.952468    2.037881 H    1857 MOH     0.0372 ****
11447 HC3   -26.630108    7.829794    0.969443 H    1857 MOH     0.0372 ****
11448 O1    -25.930359    6.050240    0.132936 O    1857 MOH    -0.6497 ****
11449 HO1   -26.624334    6.096372   -0.528209 H    1857 MOH     0.4215 ****
11450 HC1   -20.489411    1.812214    8.032026 H    1858 MOH     0.0372 ****
11451 C1    -19.881461    2.683008    7.783831 C    1858 MOH     0.1166 ****
11452 HC2   -18.831838    2.413564    7.669280 H    1858 MOH     0.0372 ****
11453 HC3   -19.938041    3.405199    8.599125 H    1858 MOH     0.0372 ****
11454 O1    -20.276368    3.245166    6.573972 O    1858 MOH    -0.6497 ****
11455 HO1   -19.994621    2.646674    5.878178 H    1858 MOH     0.4215 ****
11456 HC1   -14.908743    8.062087   -2.655893 H    1859 MOH     0.0372 ****
11457 C1    -15.923725    7.678742   -2.759838 C    1859 MOH     0.1166 ****
11458 HC2   -16.644835    8.496055   -2.738625 H    1859 MOH     0.0372 ****
11459 HC3   -16.158706    6.983903   -1.953736 H    1859 MOH     0.0372 ****
11460 O1    -16.051319    6.966757   -3.942121 O    1859 MOH    -0.6497 ****
11461 HO1   -15.330786    6.333564   -3.973940 H    1859 MOH     0.4215 ****
11462 HC1   -21.429914   -5.931848   -1.766353 H    1860 MOH     0.0372 ****
11463 C1    -20.573126   -6.189861   -2.390021 C    1860 MOH     0.1166 ****
11464 HC2   -20.387219   -5.396634   -3.113391 H    1860 MOH     0.0372 ****
11465 HC3   -20.819077   -7.093722   -2.947221 H    1860 MOH     0.0372 ****
11466 O1    -19.409765   -6.380513   -1.588869 O    1860 MOH    -0.6497 ****
11467 HO1   -18.713481   -6.728340   -2.150312 H    1860 MOH     0.4215 ****
11468 HC1   -15.375242   -6.271919   -2.583061 H    1861 MOH     0.0372 ****
11469 C1    -15.873495   -7.047590   -3.162889 C    1861 MOH     0.1166 ****
11470 HC2   -15.146611   -7.793052   -3.485329 H    1861 MOH     0.0372 ****
11471 HC3   -16.335953   -6.573614   -4.029095 H    1861 MOH     0.0372 ****
11472 O1    -16.848640   -7.678334   -2.365979 O    1861 MOH    -0.6497 ****
11473 HO1   -16.376945   -8.047390   -1.616446 H    1861 MOH     0.4215 ****
11474 HC1   -12.034693   -0.220046    4.603972 H    1862 MOH     0.0372 ****
11475 C1    -12.657077    0.674426    4.594780 C    1862 MOH     0.1166 ****
11476 HC2   -12.213094    1.461529    5.204306 H    1862 MOH     0.0372 ****
11477 HC3   -13.628757    0.396409    5.004195 H    1862 MOH     0.0372 ****
11478 O1    -12.836633    1.127174    3.273197 O    1862 MOH    -0.6497 ****
11479 HO1   -11.979268    1.402741    2.940150 H    1862 MOH     0.4215 ****
11480 HC1   -16.050742    5.426844   -6.876614 H    1863 MOH     0.0372 ****
11481 C1    -15.457803    5.088407   -7.725849 C    1863 MOH     0.1166 ****
11482 HC2   -15.090608    4.092689   -7.477654 H    1863 MOH     0.0372 ****
11483 HC3   -14.610830    5.758342   -7.877877 H    1863 MOH     0.0372 ****
11484 O1    -16.262052    5.037376   -8.896111 O    1863 MOH    -0.6497 ****
11485 HO1   -15.855020    4.387036   -9.473817 H    1863 MOH     0.4215 ****
11486 HC1   -20.294266    5.747728   -1.214103 H    1864 MOH     0.0372 ****
11487 C1    -20.112978    4.709552   -0.934795 C    1864 MOH     0.1166 ****
11488 HC2   -20.772312    4.072277   -1.523815 H    1864 MOH     0.0372 ****
11489 HC3   -20.337567    4.554826    0.120915 H    1864 MOH     0.0372 ****
11490 O1    -18.782763    4.313960   -1.175919 O    1864 MOH    -0.6497 ****
11491 HO1   -18.603207    4.422145   -2.112835 H    1864 MOH     0.4215 ****
11492 HC1   -16.405812   -0.040417    2.444468 H    1865 MOH     0.0372 ****
11493 C1    -15.952015    0.838950    2.901259 C    1865 MOH     0.1166 ****
11494 HC2   -15.114857    1.155751    2.279005 H    1865 MOH     0.0372 ****
11495 HC3   -15.648329    0.589919    3.918079 H    1865 MOH     0.0372 ****
11496 O1    -16.902333    1.836709    2.865904 O    1865 MOH    -0.6497 ****
11497 HO1   -17.230268    1.892231    1.965050 H    1865 MOH     0.4215 ****
11498 HC1   -24.573009   11.432177    0.115258 H    1866 MOH     0.0372 ****
11499 C1    -25.480604   11.368490    0.714885 C    1866 MOH     0.1166 ****
11500 HC2   -26.091440   10.521783    0.402343 H    1866 MOH     0.0372 ****
11501 HC3   -26.029664   12.300521    0.582656 H    1866 MOH     0.0372 ****
11502 O1    -25.108790   11.185187    2.039296 O    1866 MOH    -0.6497 ****
11503 HO1   -24.581669   10.382571    2.037881 H    1866 MOH     0.4215 ****
11504 HC1    -9.042864    3.278642    7.821308 H    1867 MOH     0.0372 ****
11505 C1     -9.295744    4.143312    8.435077 C    1867 MOH     0.1166 ****
11506 HC2    -8.488031    4.326615    9.142891 H    1867 MOH     0.0372 ****
11507 HC3   -10.213730    3.910610    8.973892 H    1867 MOH     0.0372 ****
11508 O1     -9.488001    5.251706    7.578770 O    1867 MOH    -0.6497 ****
11509 HO1   -10.173316    4.980629    6.963587 H    1867 MOH     0.4215 ****
11510 HC1   -17.036278   -2.639325   -4.908028 H    1868 MOH     0.0372 ****
11511 C1    -16.109054   -2.816097   -4.364263 C    1868 MOH     0.1166 ****
11512 HC2   -16.174872   -3.740779   -3.790800 H    1868 MOH     0.0372 ****
11513 HC3   -15.885619   -1.979596   -3.701704 H    1868 MOH     0.0372 ****
11514 O1    -15.105619   -2.918159   -5.294816 O    1868 MOH    -0.6497 ****
11515 HO1   -14.295597   -2.577271   -4.908028 H    1868 MOH     0.4215 ****
11516 HC1   -19.133215   -2.495214  -10.180924 H    1869 MOH     0.0372 ****
11517 C1    -18.853200   -3.403566   -9.647058 C    1869 MOH     0.1166 ****
11518 HC2   -18.044909   -3.899179  -10.184459 H    1869 MOH     0.0372 ****
11519 HC3   -19.684007   -4.109427   -9.623723 H    1869 MOH     0.0372 ****
11520 O1    -18.415568   -3.142287   -8.327597 O    1869 MOH    -0.6497 ****
11521 HO1   -18.763133   -3.846924   -7.776053 H    1869 MOH     0.4215 ****
11522 HC1    -7.949363   -3.023079    3.222286 H    1870 MOH     0.0372 ****
11523 C1     -8.780747   -2.339671    3.052580 C    1870 MOH     0.1166 ****
11524 HC2    -9.702775   -2.799767    3.409669 H    1870 MOH     0.0372 ****
11525 HC3    -8.851184   -2.151468    1.981313 H    1870 MOH     0.0372 ****
11526 O1     -8.452812   -1.119009    3.704532 O    1870 MOH    -0.6497 ****
11527 HO1    -7.839666   -1.316192    4.416589 H    1870 MOH     0.4215 ****
11528 HC1   -15.442792   -0.793635   11.705446 H    1871 MOH     0.0372 ****
11529 C1    -16.334221   -0.166973   11.673626 C    1871 MOH     0.1166 ****
11530 HC2   -17.222763   -0.797717   11.633321 H    1871 MOH     0.0372 ****
11531 HC3   -16.324983    0.451114   10.775600 H    1871 MOH     0.0372 ****
11532 O1    -16.323828    0.680550   12.795097 O    1871 MOH    -0.6497 ****
11533 HO1   -15.568077    1.260671   12.678424 H    1871 MOH     0.4215 ****
11534 HC1   -13.785797    0.468261   10.291939 H    1872 MOH     0.0372 ****
11535 C1    -13.561207    1.534197   10.342144 C    1872 MOH     0.1166 ****
11536 HC2   -13.920319    2.082066    9.470988 H    1872 MOH     0.0372 ****
11537 HC3   -12.475212    1.580737   10.270019 H    1872 MOH     0.0372 ****
11538 O1    -13.922051    2.132281   11.608572 O    1872 MOH    -0.6497 ****
11539 HO1   -13.994220    3.081050   11.482707 H    1872 MOH     0.4215 ****
11540 HC1   -19.543711   -1.625645    6.741556 H    1873 MOH     0.0372 ****
11541 C1    -19.198455   -2.468677    6.144051 C    1873 MOH     0.1166 ****
11542 HC2   -18.458292   -3.000625    6.742970 H    1873 MOH     0.0372 ****
11543 HC3   -18.756782   -2.082883    5.225519 H    1873 MOH     0.0372 ****
11544 O1    -20.250965   -3.386420    5.810296 O    1873 MOH    -0.6497 ****
11545 HO1   -19.972105   -3.899588    5.048742 H    1873 MOH     0.4215 ****
11546 HC1   -14.478617  -13.305220   -3.003083 H    1874 MOH     0.0372 ****
11547 C1    -14.511526  -12.220096   -3.102078 C    1874 MOH     0.1166 ****
11548 HC2   -14.066389  -11.751019   -2.224558 H    1874 MOH     0.0372 ****
11549 HC3   -15.549024  -11.894314   -3.177031 H    1874 MOH     0.0372 ****
11550 O1    -13.825634  -11.842875   -4.267389 O    1874 MOH    -0.6497 ****
11551 HO1   -13.724020  -10.889615   -4.227084 H    1874 MOH     0.4215 ****
11552 HC1   -13.510978    0.075526    0.164756 H    1875 MOH     0.0372 ****
11553 C1    -12.847602   -0.746278    0.434163 C    1875 MOH     0.1166 ****
11554 HC2   -11.831466   -0.360075    0.511945 H    1875 MOH     0.0372 ****
11555 HC3   -12.861459   -1.528890   -0.324562 H    1875 MOH     0.0372 ****
11556 O1    -13.225767   -1.173306    1.721098 O    1875 MOH    -0.6497 ****
11557 HO1   -13.172073   -0.404166    2.292440 H    1875 MOH     0.4215 ****
11558 HC1    -9.731066    6.274776    4.268096 H    1876 MOH     0.0372 ****
11559 C1    -10.070548    5.528907    3.548969 C    1876 MOH     0.1166 ****
11560 HC2   -10.576884    4.691589    4.030509 H    1876 MOH     0.0372 ****
11561 HC3    -9.183738    5.132089    3.053994 H    1876 MOH     0.0372 ****
11562 O1    -10.911747    6.149444    2.594375 O    1876 MOH    -0.6497 ****
11563 HO1   -10.382317    6.834485    2.178596 H    1876 MOH     0.4215 ****
11564 HC1   -19.024673   -0.961425   -4.712867 H    1877 MOH     0.0372 ****
11565 C1    -19.655139   -1.274959   -3.881309 C    1877 MOH     0.1166 ****
11566 HC2   -20.631439   -1.587678   -4.251833 H    1877 MOH     0.0372 ****
11567 HC3   -19.825458   -0.447848   -3.191173 H    1877 MOH     0.0372 ****
11568 O1    -19.052963   -2.329057   -3.185516 O    1877 MOH    -0.6497 ****
11569 HO1   -19.703637   -2.683416   -2.575990 H    1877 MOH     0.4215 ****
11570 HC1   -16.362511    3.770989   -1.569070 H    1878 MOH     0.0372 ****
11571 C1    -15.706064    4.046557   -0.743877 C    1878 MOH     0.1166 ****
11572 HC2   -16.252814    4.010631    0.199404 H    1878 MOH     0.0372 ****
11573 HC3   -15.359653    5.069219   -0.894490 H    1878 MOH     0.0372 ****
11574 O1    -14.587159    3.174539   -0.678823 O    1878 MOH    -0.6497 ****
11575 HO1   -13.982096    3.501137   -0.008485 H    1878 MOH     0.4215 ****
11576 HC1   -12.586063    8.485849    6.198498 H    1879 MOH     0.0372 ****
11577 C1    -12.897832    8.066986    7.155920 C    1879 MOH     0.1166 ****
11578 HC2   -13.424953    8.813264    7.748476 H    1879 MOH     0.0372 ****
11579 HC3   -12.005248    7.733447    7.684129 H    1879 MOH     0.0372 ****
11580 O1    -13.712473    6.952877    6.928939 O    1879 MOH    -0.6497 ****
11581 HO1   -14.398365    7.194151    6.303150 H    1879 MOH     0.4215 ****
11582 HC1   -19.906287   13.880034   -1.520987 H    1880 MOH     0.0372 ****
11583 C1    -20.813881   14.259705   -1.990506 C    1880 MOH     0.1166 ****
11584 HC2   -20.683400   14.239700   -3.073086 H    1880 MOH     0.0372 ****
11585 HC3   -20.957064   15.290531   -1.668772 H    1880 MOH     0.0372 ****
11586 O1    -21.954148   13.466478   -1.616446 O    1880 MOH    -0.6497 ****
11587 HO1   -22.727220   13.971481   -1.878783 H    1880 MOH     0.4215 ****
11588 HC1   -27.024438   -6.296822   -1.516037 H    1881 MOH     0.0372 ****
11589 C1    -26.380693   -5.512577   -1.912724 C    1881 MOH     0.1166 ****
11590 HC2   -26.346629   -4.711185   -1.175212 H    1881 MOH     0.0372 ****
11591 HC3   -26.779642   -5.072485   -2.827720 H    1881 MOH     0.0372 ****
11592 O1    -25.068953   -5.977163   -2.143241 O    1881 MOH    -0.6497 ****
11593 HO1   -24.626703   -5.190061   -2.468510 H    1881 MOH     0.4215 ****
11594 HC1   -17.748729    5.410106    4.990759 H    1882 MOH     0.0372 ****
11595 C1    -17.166760    5.652606    4.101219 C    1882 MOH     0.1166 ****
11596 HC2   -17.203133    4.830802    3.386334 H    1882 MOH     0.0372 ****
11597 HC3   -16.139654    5.795901    4.438509 H    1882 MOH     0.0372 ****
11598 O1    -17.632681    6.896947    3.569475 O    1882 MOH    -0.6497 ****
11599 HO1   -17.216989    7.574231    4.107583 H    1882 MOH     0.4215 ****
11600 HC1   -20.254429    0.843849    2.662257 H    1883 MOH     0.0372 ****
11601 C1    -20.091616    0.619721    3.716553 C    1883 MOH     0.1166 ****
11602 HC2   -19.524081   -0.307003    3.808477 H    1883 MOH     0.0372 ****
11603 HC3   -21.075421    0.502145    4.170516 H    1883 MOH     0.0372 ****
11604 O1    -19.398796    1.696272    4.308401 O    1883 MOH    -0.6497 ****
11605 HO1   -18.560483    1.786903    3.850196 H    1883 MOH     0.4215 ****
11606 HC1   -22.319034   -5.222312    7.421793 H    1884 MOH     0.0372 ****
11607 C1    -22.712209   -4.787528    8.340324 C    1884 MOH     0.1166 ****
11608 HC2   -22.896384   -3.722816    8.198903 H    1884 MOH     0.0372 ****
11609 HC3   -22.013038   -4.931639    9.164104 H    1884 MOH     0.0372 ****
11610 O1    -23.876725   -5.448482    8.669129 O    1884 MOH    -0.6497 ****
11611 HO1   -24.301077   -4.999000    9.403813 H    1884 MOH     0.4215 ****
11612 HC1   -20.532134    0.738929   -6.673674 H    1885 MOH     0.0372 ****
11613 C1    -20.665502   -0.283733   -7.026520 C    1885 MOH     0.1166 ****
11614 HC2   -21.664318   -0.361300   -7.455027 H    1885 MOH     0.0372 ****
11615 HC3   -20.592179   -1.000617   -6.209105 H    1885 MOH     0.0372 ****
11616 O1    -19.745206   -0.560933   -8.038390 O    1885 MOH    -0.6497 ****
11617 HO1   -19.629159   -1.508886   -8.130314 H    1885 MOH     0.4215 ****
11618 HC1   -18.345132   -8.535655   -7.715949 H    1886 MOH     0.0372 ****
11619 C1    -19.081830   -8.189869   -6.991165 C    1886 MOH     0.1166 ****
11620 HC2   -19.352608   -8.997792   -6.310221 H    1886 MOH     0.0372 ****
11621 HC3   -19.990580   -7.890215   -7.511595 H    1886 MOH     0.0372 ****
11622 O1    -18.641890   -7.108419   -6.197084 O    1886 MOH    -0.6497 ****
11623 HO1   -17.694458   -7.177005   -6.061319 H    1886 MOH     0.4215 ****
11624 HC1   -17.396545    8.019629   -7.363810 H    1887 MOH     0.0372 ****
11625 C1    -18.244095    7.355001   -7.194105 C    1887 MOH     0.1166 ****
11626 HC2   -19.109543    7.998809   -7.037834 H    1887 MOH     0.0372 ****
11627 HC3   -18.011423    6.753243   -6.315878 H    1887 MOH     0.0372 ****
11628 O1    -18.377463    6.653222   -8.409621 O    1887 MOH    -0.6497 ****
11629 HO1   -17.531645    6.247424   -8.614682 H    1887 MOH     0.4215 ****
11630 HC1   -19.507915  -10.786328   -1.953736 H    1888 MOH     0.0372 ****
11631 C1    -18.472726  -10.482183   -2.110007 C    1888 MOH     0.1166 ****
11632 HC2   -17.883829  -11.384820   -2.277591 H    1888 MOH     0.0372 ****
11633 HC3   -18.099758   -9.925332   -1.251579 H    1888 MOH     0.0372 ****
11634 O1    -18.475035   -9.750602   -3.286632 O    1888 MOH    -0.6497 ****
11635 HO1   -17.837641   -9.041475   -3.177031 H    1888 MOH     0.4215 ****
11636 HC1   -15.979150    3.401933    7.217439 H    1889 MOH     0.0372 ****
11637 C1    -15.915642    2.478884    6.641147 C    1889 MOH     0.1166 ****
11638 HC2   -14.883917    2.274760    6.355476 H    1889 MOH     0.0372 ****
11639 HC3   -16.532829    2.590744    5.750192 H    1889 MOH     0.0372 ****
11640 O1    -16.433525    1.425603    7.406236 O    1889 MOH    -0.6497 ****
11641 HO1   -16.183532    0.600942    6.981972 H    1889 MOH     0.4215 ****
11642 HC1   -28.030182    2.709544   -1.265014 H    1890 MOH     0.0372 ****
11643 C1    -28.196459    3.779971   -1.146220 C    1890 MOH     0.1166 ****
11644 HC2   -27.843121    4.100854   -0.166170 H    1890 MOH     0.0372 ****
11645 HC3   -29.263403    3.993077   -1.218345 H    1890 MOH     0.0372 ****
11646 O1    -27.509412    4.494405   -2.155969 O    1890 MOH    -0.6497 ****
11647 HO1   -27.600056    3.964499   -2.950757 H    1890 MOH     0.4215 ****
11648 HC1   -21.366983    9.025553   -4.113948 H    1891 MOH     0.0372 ****
11649 C1    -20.495761    8.370315   -4.133039 C    1891 MOH     0.1166 ****
11650 HC2   -20.496339    7.798767   -5.060763 H    1891 MOH     0.0372 ****
11651 HC3   -20.523474    7.661187   -3.305017 H    1891 MOH     0.0372 ****
11652 O1    -19.317389    9.154968   -4.059500 O    1891 MOH    -0.6497 ****
11653 HO1   -19.346834    9.665687   -3.247035 H    1891 MOH     0.4215 ****
11654 HC1   -25.552195    2.260471   -1.588869 H    1892 MOH     0.0372 ****
11655 C1    -25.284882    1.255772   -1.260065 C    1892 MOH     0.1166 ****
11656 HC2   -24.340337    0.966324   -1.720391 H    1892 MOH     0.0372 ****
11657 HC3   -26.047562    0.542154   -1.569777 H    1892 MOH     0.0372 ****
11658 O1    -25.117450    1.263528    0.168998 O    1892 MOH    -0.6497 ****
11659 HO1   -25.945948    1.451323    0.615890 H    1892 MOH     0.4215 ****
11660 HC1    -8.417594    2.075943    5.773527 H    1893 MOH     0.0372 ****
11661 C1     -7.559074    2.437651    5.207841 C    1893 MOH     0.1166 ****
11662 HC2    -7.907216    2.956942    4.315473 H    1893 MOH     0.0372 ****
11663 HC3    -6.929762    1.597067    4.914392 H    1893 MOH     0.0372 ****
11664 O1     -6.809673    3.327224    6.003336 O    1893 MOH    -0.6497 ****
11665 HO1    -6.642242    2.908769    6.851158 H    1893 MOH     0.4215 ****
11666 HC1   -22.670640    8.338063    0.487903 H    1894 MOH     0.0372 ****
11667 C1    -23.041299    7.941246    1.432598 C    1894 MOH     0.1166 ****
11668 HC2   -22.186820    7.818363    2.097986 H    1894 MOH     0.0372 ****
11669 HC3   -23.512994    6.965532    1.316633 H    1894 MOH     0.0372 ****
11670 O1    -23.896354    8.876543    1.994748 O    1894 MOH    -0.6497 ****
11671 HO1   -23.711602    8.878176    2.936614 H    1894 MOH     0.4215 ****
11672 HC1   -22.786687   -4.716492   12.639534 H    1895 MOH     0.0372 ****
11673 C1    -21.892372   -5.159034   13.079354 C    1895 MOH     0.1166 ****
11674 HC2   -21.826554   -4.885915   14.132236 H    1895 MOH     0.0372 ****
11675 HC3   -21.002098   -4.789161   12.570237 H    1895 MOH     0.0372 ****
11676 O1    -21.943756   -6.571573   12.963388 O    1895 MOH    -0.6497 ****
11677 HO1   -21.038471   -6.879800   13.051777 H    1895 MOH     0.4215 ****
11678 HC1   -24.133068   -9.074951   -9.024804 H    1896 MOH     0.0372 ****
11679 C1    -23.619226   -8.765907   -8.114758 C    1896 MOH     0.1166 ****
11680 HC2   -22.536117   -8.792035   -8.230723 H    1896 MOH     0.0372 ****
11681 HC3   -23.922335   -9.405224   -7.284614 H    1896 MOH     0.0372 ****
11682 O1    -24.058590   -7.508503   -7.831915 O    1896 MOH    -0.6497 ****
11683 HO1   -24.390566   -7.146386   -8.657109 H    1896 MOH     0.4215 ****
11684 HC1   -23.382513    3.663212    6.226075 H    1897 MOH     0.0372 ****
11685 C1    -23.448908    3.402750    7.282492 C    1897 MOH     0.1166 ****
11686 HC2   -23.340944    2.324566    7.406236 H    1897 MOH     0.0372 ****
11687 HC3   -24.432713    3.717509    7.631096 H    1897 MOH     0.0372 ****
11688 O1    -22.465103    4.121675    8.005863 O    1897 MOH    -0.6497 ****
11689 HO1   -21.642379    4.012672    7.522909 H    1897 MOH     0.4215 ****
11690 HC1   -15.835967    6.224154   11.074706 H    1898 MOH     0.0372 ****
11691 C1    -15.398336    5.320700   10.649735 C    1898 MOH     0.1166 ****
11692 HC2   -15.154694    5.515843    9.606045 H    1898 MOH     0.0372 ****
11693 HC3   -16.103858    4.494406   10.743073 H    1898 MOH     0.0372 ****
11694 O1    -14.262111    5.023087   11.397147 O    1898 MOH    -0.6497 ****
11695 HO1   -13.634531    5.748953   11.349064 H    1898 MOH     0.4215 ****
11696 HC1   -19.055850   -0.973672   10.441846 H    1899 MOH     0.0372 ****
11697 C1    -19.466346   -1.930198   10.764993 C    1899 MOH     0.1166 ****
11698 HC2   -18.687500   -2.692806   10.786207 H    1899 MOH     0.0372 ****
11699 HC3   -20.251542   -2.209031   10.062836 H    1899 MOH     0.0372 ****
11700 O1    -20.062171   -1.785678   12.020815 O    1899 MOH    -0.6497 ****
11701 HO1   -19.441520   -1.336605   12.599228 H    1899 MOH     0.4215 ****
11702 HC1   -22.672949    9.751827   -2.587304 H    1900 MOH     0.0372 ****
11703 C1    -22.106569   10.056788   -1.706956 C    1900 MOH     0.1166 ****
11704 HC2   -21.720899    9.163133   -1.215517 H    1900 MOH     0.0372 ****
11705 HC3   -22.760706   10.580571   -1.010456 H    1900 MOH     0.0372 ****
11706 O1    -21.011912   10.871244   -2.112128 O    1900 MOH    -0.6497 ****
11707 HO1   -21.362941   11.746528   -2.288905 H    1900 MOH     0.4215 ****
11708 HC1   -30.756430    0.347011   -3.190466 H    1901 MOH     0.0372 ****
11709 C1    -30.197555    0.979388   -2.501037 C    1901 MOH     0.1166 ****
11710 HC2   -30.152522    1.980004   -2.931665 H    1901 MOH     0.0372 ****
11711 HC3   -29.184306    0.585020   -2.420427 H    1901 MOH     0.0372 ****
11712 O1    -30.862663    0.991635   -1.212688 O    1901 MOH    -0.6497 ****
11713 HO1   -30.395586    0.373547   -0.647003 H    1901 MOH     0.4215 ****
11714 HC1   -22.281506   -5.866120   -5.291280 H    1902 MOH     0.0372 ****
11715 C1    -23.163697   -5.282733   -5.030358 C    1902 MOH     0.1166 ****
11716 HC2   -22.859433   -4.284158   -4.719231 H    1902 MOH     0.0372 ****
11717 HC3   -23.698901   -5.772631   -4.217185 H    1902 MOH     0.0372 ****
11718 O1    -23.984689   -5.227619   -6.197791 O    1902 MOH    -0.6497 ****
11719 HO1   -24.075333   -6.116376   -6.550637 H    1902 MOH     0.4215 ****
11720 HC1   -14.744775  -14.858605    0.159806 H    1903 MOH     0.0372 ****
11721 C1    -13.907040  -14.630394   -0.499925 C    1903 MOH     0.1166 ****
11722 HC2   -13.549660  -13.628961   -0.264458 H    1903 MOH     0.0372 ****
11723 HC3   -14.257492  -14.675301   -1.530886 H    1903 MOH     0.0372 ****
11724 O1    -12.826240  -15.572223   -0.295571 O    1903 MOH    -0.6497 ****
11725 HO1   -11.993124  -15.183979   -0.573464 H    1903 MOH     0.4215 ****
11726 HC1   -20.551187   -4.003283   -0.224860 H    1904 MOH     0.0372 ****
11727 C1    -20.862956   -2.959800   -0.260215 C    1904 MOH     0.1166 ****
11728 HC2   -20.056975   -2.302520    0.067882 H    1904 MOH     0.0372 ****
11729 HC3   -21.705888   -2.836509    0.418607 H    1904 MOH     0.0372 ****
11730 O1    -21.316176   -2.613606   -1.554221 O    1904 MOH    -0.6497 ****
11731 HO1   -21.527486   -1.677900   -1.524522 H    1904 MOH     0.4215 ****
11732 HC1   -13.855079    4.010223    7.272593 H    1905 MOH     0.0372 ****
11733 C1    -12.929586    4.309877    7.766154 C    1905 MOH     0.1166 ****
11734 HC2   -12.485604    3.455822    8.278099 H    1905 MOH     0.0372 ****
11735 HC3   -13.175537    5.061871    8.515687 H    1905 MOH     0.0372 ****
11736 O1    -12.047395    4.809165    6.740142 O    1905 MOH    -0.6497 ****
11737 HO1   -12.237921    5.747319    6.665188 H    1905 MOH     0.4215 ****
11738 HC1   -24.825888   -4.832435    0.591848 H    1906 MOH     0.0372 ****
11739 C1    -24.054548   -5.125557    1.304612 C    1906 MOH     0.1166 ****
11740 HC2   -23.156769   -5.381937    0.741755 H    1906 MOH     0.0372 ****
11741 HC3   -24.384793   -6.013906    1.843427 H    1906 MOH     0.0372 ****
11742 O1    -23.794163   -4.048190    2.213244 O    1906 MOH    -0.6497 ****
11743 HO1   -24.460426   -4.073093    2.904087 H    1906 MOH     0.4215 ****
11744 HC1   -24.955215   -4.221696    6.474977 H    1907 MOH     0.0372 ****
11745 C1    -24.471973   -4.372339    5.509776 C    1907 MOH     0.1166 ****
11746 HC2   -24.016443   -5.361933    5.489977 H    1907 MOH     0.0372 ****
11747 HC3   -23.711602   -3.603199    5.371183 H    1907 MOH     0.0372 ****
11748 O1    -25.503120   -4.322941    4.523362 O    1907 MOH    -0.6497 ****
11749 HO1   -26.015807   -3.521958    4.653470 H    1907 MOH     0.4215 ****
11750 HC1   -29.255320   -2.794051    0.141421 H    1908 MOH     0.0372 ****
11751 C1    -28.667577   -1.878350    0.202939 C    1908 MOH     0.1166 ****
11752 HC2   -28.201655   -1.667694   -0.760140 H    1908 MOH     0.0372 ****
11753 HC3   -27.878917   -2.026953    0.939745 H    1908 MOH     0.0372 ****
11754 O1    -29.449309   -0.753626    0.578413 O    1908 MOH    -0.6497 ****
11755 HO1   -29.849413   -0.917742    1.435426 H    1908 MOH     0.4215 ****
11756 HC1   -15.438173    7.879192    2.620538 H    1909 MOH     0.0372 ****
11757 C1    -14.492473    8.222121    3.040559 C    1909 MOH     0.1166 ****
11758 HC2   -14.606211    9.196609    3.516442 H    1909 MOH     0.0372 ****
11759 HC3   -13.762703    8.335614    2.238700 H    1909 MOH     0.0372 ****
11760 O1    -14.050800    7.299888    4.012831 O    1909 MOH    -0.6497 ****
11761 HO1   -13.219416    6.911644    3.730695 H    1909 MOH     0.4215 ****
11762 HC1   -15.520157   -0.186569   -2.308704 H    1910 MOH     0.0372 ****
11763 C1    -14.738424    0.486632   -2.660136 C    1910 MOH     0.1166 ****
11764 HC2   -14.178972    0.051848   -3.488158 H    1910 MOH     0.0372 ****
11765 HC3   -14.053110    0.691573   -1.838478 H    1910 MOH     0.0372 ****
11766 O1    -15.312311    1.686065   -3.105613 O    1910 MOH    -0.6497 ****
11767 HO1   -15.117166    2.329465   -2.419720 H    1910 MOH     0.4215 ****
11768 HC1   -10.620300   22.554330   -2.037175 H    1911 MOH     0.0372 ****
11769 C1    -11.656644   22.693134   -1.730291 C    1911 MOH     0.1166 ****
11770 HC2   -12.220138   23.057292   -2.588718 H    1911 MOH     0.0372 ****
11771 HC3   -11.726504   23.443087   -0.941867 H    1911 MOH     0.0372 ****
11772 O1    -12.182033   21.450427   -1.313098 O    1911 MOH    -0.6497 ****
11773 HO1   -12.944713   21.602703   -0.750948 H    1911 MOH     0.4215 ****
11774 HC1   -16.121871   12.013359    2.054145 H    1912 MOH     0.0372 ****
11775 C1    -16.922656   11.619400    2.679934 C    1912 MOH     0.1166 ****
11776 HC2   -17.488459   10.889043    2.100814 H    1912 MOH     0.0372 ****
11777 HC3   -17.595269   12.396296    3.041266 H    1912 MOH     0.0372 ****
11778 O1    -16.425557   10.878429    3.724331 O    1912 MOH    -0.6497 ****
11779 HO1   -15.881116   11.474471    4.243348 H    1912 MOH     0.4215 ****
11780 HC1    -4.012527   13.252393    6.560537 H    1913 MOH     0.0372 ****
11781 C1     -3.951328   14.032147    7.318555 C    1913 MOH     0.1166 ****
11782 HC2    -3.591061   13.586340    8.246279 H    1913 MOH     0.0372 ****
11783 HC3    -4.944370   14.457542    7.464219 H    1913 MOH     0.0372 ****
11784 O1     -3.080106   15.054809    6.890755 O    1913 MOH    -0.6497 ****
11785 HO1    -2.193296   14.694734    6.824287 H    1913 MOH     0.4215 ****
11786 HC1     2.245950   18.001545    0.779939 H    1914 MOH     0.0372 ****
11787 C1      2.679540   18.194647    1.760696 C    1914 MOH     0.1166 ****
11788 HC2     2.965329   19.245478    1.811607 H    1914 MOH     0.0372 ****
11789 HC3     3.567505   17.575334    1.887268 H    1914 MOH     0.0372 ****
11790 O1      1.725180   17.879887    2.768323 O    1914 MOH    -0.6497 ****
11791 HO1     1.926098   16.988273    3.061065 H    1914 MOH     0.4215 ****
11792 HC1    -4.391268    7.147856   -6.852572 H    1915 MOH     0.0372 ****
11793 C1     -4.578330    6.161936   -6.427601 C    1915 MOH     0.1166 ****
11794 HC2    -4.970351    6.256650   -5.415024 H    1915 MOH     0.0372 ****
11795 HC3    -3.621083    5.645502   -6.359011 H    1915 MOH     0.0372 ****
11796 O1     -5.419529    5.358095   -7.276836 O    1915 MOH    -0.6497 ****
11797 HO1    -6.135444    5.011901   -6.739435 H    1915 MOH     0.4215 ****
11798 HC1    -1.760861    7.619791   -0.215668 H    1916 MOH     0.0372 ****
11799 C1     -2.609565    8.054575    0.312541 C    1916 MOH     0.1166 ****
11800 HC2    -2.745820    9.081728   -0.025456 H    1916 MOH     0.0372 ****
11801 HC3    -2.445021    8.042328    1.390172 H    1916 MOH     0.0372 ****
11802 O1     -3.775236    7.356471   -0.021213 O    1916 MOH    -0.6497 ****
11803 HO1    -3.748100    6.555896    0.508410 H    1916 MOH     0.4215 ****
11804 HC1     6.315692   16.390189   -3.835347 H    1917 MOH     0.0372 ****
11805 C1      6.121125   17.131568   -3.060358 C    1917 MOH     0.1166 ****
11806 HC2     5.057069   17.173618   -2.827720 H    1917 MOH     0.0372 ****
11807 HC3     6.422502   18.119937   -3.407548 H    1917 MOH     0.0372 ****
11808 O1      6.790852   16.801295   -1.849084 O    1917 MOH    -0.6497 ****
11809 HO1     6.573191   15.906823   -1.576848 H    1917 MOH     0.4215 ****
11810 HC1    -9.570678   21.103007    2.631851 H    1918 MOH     0.0372 ****
11811 C1     -8.966769   21.654551    3.352393 C    1918 MOH     0.1166 ****
11812 HC2    -8.155015   21.019316    3.705946 H    1918 MOH     0.0372 ****
11813 HC3    -9.615134   21.940325    4.181122 H    1918 MOH     0.0372 ****
11814 O1     -8.462165   22.778458    2.696905 O    1918 MOH    -0.6497 ****
11815 HO1    -7.649256   23.040145    3.136018 H    1918 MOH     0.4215 ****
11816 HC1    -2.866486   14.695550   -9.829491 H    1919 MOH     0.0372 ****
11817 C1     -3.658611   14.163195   -9.303404 C    1919 MOH     0.1166 ****
11818 HC2    -3.631475   14.420799   -8.244865 H    1919 MOH     0.0372 ****
11819 HC3    -3.492911   13.095625   -9.445533 H    1919 MOH     0.0372 ****
11820 O1     -4.887212   14.578791   -9.859190 O    1919 MOH    -0.6497 ****
11821 HO1    -5.581765   14.219941   -9.301283 H    1919 MOH     0.4215 ****
11822 HC1    -2.170202   22.586582  -10.948842 H    1920 MOH     0.0372 ****
11823 C1     -1.632689   22.929102  -11.833432 C    1920 MOH     0.1166 ****
11824 HC2    -1.960624   22.355105  -12.700345 H    1920 MOH     0.0372 ****
11825 HC3    -0.573251   22.744574  -11.655241 H    1920 MOH     0.0372 ****
11826 O1     -1.893074   24.309798  -12.102133 O    1920 MOH    -0.6497 ****
11827 HO1    -1.633843   24.514738  -13.002987 H    1920 MOH     0.4215 ****
11828 HC1   -11.508843   15.781491    7.016620 H    1921 MOH     0.0372 ****
11829 C1    -12.529021   15.488777    7.264815 C    1921 MOH     0.1166 ****
11830 HC2   -12.690101   15.546340    8.340324 H    1921 MOH     0.0372 ****
11831 HC3   -12.737444   14.466523    6.948031 H    1921 MOH     0.0372 ****
11832 O1    -13.415253   16.381208    6.663774 O    1921 MOH    -0.6497 ****
11833 HO1   -12.963765   16.757613    5.904341 H    1921 MOH     0.4215 ****
11834 HC1     1.198637   20.754363   -2.306582 H    1922 MOH     0.0372 ****
11835 C1      1.247134   19.666790   -2.357494 C    1922 MOH     0.1166 ****
11836 HC2     0.868970   19.312022   -3.315624 H    1922 MOH     0.0372 ****
11837 HC3     0.640339   19.220166   -1.569777 H    1922 MOH     0.0372 ****
11838 O1      2.583700   19.232414   -2.283955 O    1922 MOH    -0.6497 ****
11839 HO1     2.551369   18.273030   -2.262742 H    1922 MOH     0.4215 ****
11840 HC1    -7.711610   19.729660   -7.879998 H    1923 MOH     0.0372 ****
11841 C1     -7.665999   19.274871   -8.869948 C    1923 MOH     0.1166 ****
11842 HC2    -6.748589   18.695975   -8.978842 H    1923 MOH     0.0372 ****
11843 HC3    -7.676391   20.052584   -9.632916 H    1923 MOH     0.0372 ****
11844 O1     -8.769315   18.438371   -9.087029 O    1923 MOH    -0.6497 ****
11845 HO1    -8.510085   17.550839   -8.829643 H    1923 MOH     0.4215 ****
11846 HC1     0.395543   15.172793   -9.384721 H    1924 MOH     0.0372 ****
11847 C1      0.594151   16.133401   -8.910253 C    1924 MOH     0.1166 ****
11848 HC2     1.658785   16.350589   -8.993691 H    1924 MOH     0.0372 ****
11849 HC3     0.364943   16.098291   -7.845350 H    1924 MOH     0.0372 ****
11850 O1     -0.199128   17.129118   -9.561498 O    1924 MOH    -0.6497 ****
11851 HO1    -0.151785   17.905198   -8.997934 H    1924 MOH     0.4215 ****
11852 HC1   -16.909954   18.568194    3.220871 H    1925 MOH     0.0372 ****
11853 C1    -15.869569   18.595546    2.894895 C    1925 MOH     0.1166 ****
11854 HC2   -15.285291   17.955821    3.557454 H    1925 MOH     0.0372 ****
11855 HC3   -15.528355   19.629231    2.948635 H    1925 MOH     0.0372 ****
11856 O1    -15.802596   18.113405    1.571898 O    1925 MOH    -0.6497 ****
11857 HO1   -16.397267   17.360595    1.528057 H    1925 MOH     0.4215 ****
11858 HC1   -14.029554   13.885994   -0.939038 H    1926 MOH     0.0372 ****
11859 C1    -13.115031   14.192180   -1.446741 C    1926 MOH     0.1166 ****
11860 HC2   -12.519783   14.846602   -0.809637 H    1926 MOH     0.0372 ****
11861 HC3   -13.390427   14.738416   -2.349009 H    1926 MOH     0.0372 ****
11862 O1    -12.412973   13.052759   -1.844842 O    1926 MOH    -0.6497 ****
11863 HO1   -11.478243   13.251576   -1.755039 H    1926 MOH     0.4215 ****
11864 HC1    -0.763199    9.705532   -4.372748 H    1927 MOH     0.0372 ****
11865 C1     -0.715857   10.428948   -3.558161 C    1927 MOH     0.1166 ****
11866 HC2    -1.509136   11.156446   -3.729281 H    1927 MOH     0.0372 ****
11867 HC3     0.244854   10.942524   -3.604830 H    1927 MOH     0.0372 ****
11868 O1     -0.901186    9.787181   -2.264156 O    1927 MOH    -0.6497 ****
11869 HO1    -1.092866   10.462832   -1.608668 H    1927 MOH     0.4215 ****
11870 HC1   -17.083737   13.548373   -5.794740 H    1928 MOH     0.0372 ****
11871 C1    -17.041013   13.790056   -4.732666 C    1928 MOH     0.1166 ****
11872 HC2   -16.004092   13.728002   -4.401740 H    1928 MOH     0.0372 ****
11873 HC3   -17.638570   13.088277   -4.150717 H    1928 MOH     0.0372 ****
11874 O1    -17.474603   15.083795   -4.463258 O    1928 MOH    -0.6497 ****
11875 HO1   -18.244211   15.275263   -5.004195 H    1928 MOH     0.4215 ****
11876 HC1   -19.687009   17.485927    1.920502 H    1929 MOH     0.0372 ****
11877 C1    -20.121754   16.600437    2.383657 C    1929 MOH     0.1166 ****
11878 HC2   -20.533982   15.925603    1.633416 H    1929 MOH     0.0372 ****
11879 HC3   -20.943901   16.886619    3.040559 H    1929 MOH     0.0372 ****
11880 O1    -19.216469   15.897842    3.179152 O    1929 MOH    -0.6497 ****
11881 HO1   -19.743012   15.180141    3.539776 H    1929 MOH     0.4215 ****
11882 HC1     5.994686   18.420000   -0.053740 H    1930 MOH     0.0372 ****
11883 C1      6.077247   19.359787    0.492146 C    1930 MOH     0.1166 ****
11884 HC2     5.250481   20.015434    0.219203 H    1930 MOH     0.0372 ****
11885 HC3     7.034493   19.821924    0.247487 H    1930 MOH     0.0372 ****
11886 O1      6.036255   19.001753    1.833528 O    1930 MOH    -0.6497 ****
11887 HO1     6.260267   19.744765    2.397799 H    1930 MOH     0.4215 ****
11888 HC1    -6.097916   23.044228   -0.310420 H    1931 MOH     0.0372 ****
11889 C1     -6.763601   23.903182   -0.225567 C    1931 MOH     0.1166 ****
11890 HC2    -7.805718   23.583116   -0.232638 H    1931 MOH     0.0372 ****
11891 HC3    -6.628501   24.527802   -1.108037 H    1931 MOH     0.0372 ****
11892 O1     -6.537857   24.700083    0.977928 O    1931 MOH    -0.6497 ****
11893 HO1    -6.610603   24.133026    1.747968 H    1931 MOH     0.4215 ****
11894 HC1    -6.023438   12.390172    8.639431 H    1932 MOH     0.0372 ****
11895 C1     -5.723793   11.343016    8.624581 C    1932 MOH     0.1166 ****
11896 HC2    -5.089862   11.154405    7.757668 H    1932 MOH     0.0372 ****
11897 HC3    -6.591550   10.689002    8.545385 H    1932 MOH     0.0372 ****
11898 O1     -5.018848   11.031930    9.818178 O    1932 MOH    -0.6497 ****
11899 HO1    -4.584681   10.183590    9.699384 H    1932 MOH     0.4215 ****
11900 HC1   -13.774365   15.657792   -5.407953 H    1933 MOH     0.0372 ****
11901 C1    -14.314765   16.527360   -5.781305 C    1933 MOH     0.1166 ****
11902 HC2   -14.758170   16.197904   -6.721050 H    1933 MOH     0.0372 ****
11903 HC3   -13.591922   17.330385   -5.927676 H    1933 MOH     0.0372 ****
11904 O1    -15.306075   16.865798   -4.787820 O    1933 MOH    -0.6497 ****
11905 HO1   -15.941738   16.151772   -4.705089 H    1933 MOH     0.4215 ****
11906 HC1   -15.330901    8.885769   -9.717062 H    1934 MOH     0.0372 ****
11907 C1    -14.918096    9.893326   -9.753831 C    1934 MOH     0.1166 ****
11908 HC2   -15.003544   10.364036   -8.774488 H    1934 MOH     0.0372 ****
11909 HC3   -15.494869   10.481203  -10.468009 H    1934 MOH     0.0372 ****
11910 O1    -13.578643    9.837804  -10.185166 O    1934 MOH    -0.6497 ****
11911 HO1   -13.545157    9.177258  -10.880959 H    1934 MOH     0.4215 ****
11912 HC1     0.782367    7.042528   -3.768172 H    1935 MOH     0.0372 ****
11913 C1      0.102249    6.473838   -3.133897 C    1935 MOH     0.1166 ****
11914 HC2     0.456742    6.510989   -2.103643 H    1935 MOH     0.0372 ****
11915 HC3     0.047400    5.437296   -3.465530 H    1935 MOH     0.0372 ****
11916 O1     -1.130394    7.096825   -3.215922 O    1935 MOH    -0.6497 ****
11917 HO1    -1.028203    7.989664   -2.880046 H    1935 MOH     0.4215 ****
11918 HC1    -9.157295   27.298175    2.423255 H    1936 MOH     0.0372 ****
11919 C1     -9.611670   27.596196    1.478560 C    1936 MOH     0.1166 ****
11920 HC2   -10.692469   27.461474    1.526643 H    1936 MOH     0.0372 ****
11921 HC3    -9.189049   26.971577    0.690843 H    1936 MOH     0.0372 ****
11922 O1     -9.329923   28.953622    1.219052 O    1936 MOH    -0.6497 ****
11923 HO1    -9.599545   29.147948    0.318198 H    1936 MOH     0.4215 ****
11924 HC1    -8.116332   30.211843    5.546545 H    1937 MOH     0.0372 ****
11925 C1     -8.458124   29.542316    4.757414 C    1937 MOH     0.1166 ****
11926 HC2    -8.956377   28.666215    5.173193 H    1937 MOH     0.0372 ****
11927 HC3    -7.585747   29.224291    4.186779 H    1937 MOH     0.0372 ****
11928 O1     -9.239279   30.272264    3.835347 O    1937 MOH    -0.6497 ****
11929 HO1    -9.212143   29.785224    3.008739 H    1937 MOH     0.4215 ****
11930 HC1    -2.586471   21.542283    2.505986 H    1938 MOH     0.0372 ****
11931 C1     -2.103807   20.576367    2.358908 C    1938 MOH     0.1166 ****
11932 HC2    -2.876879   19.822332    2.211123 H    1938 MOH     0.0372 ****
11933 HC3    -1.539158   20.333868    3.258348 H    1938 MOH     0.0372 ****
11934 O1     -1.195635   20.604128    1.236023 O    1938 MOH    -0.6497 ****
11935 HO1    -0.484339   21.208335    1.465125 H    1938 MOH     0.4215 ****
11936 HC1    -0.021882   24.813984   10.641957 H    1939 MOH     0.0372 ****
11937 C1     -0.733177   23.988098   10.631350 C    1939 MOH     0.1166 ****
11938 HC2    -0.371179   23.256925    9.907980 H    1939 MOH     0.0372 ****
11939 HC3    -1.722178   24.360421   10.361235 H    1939 MOH     0.0372 ****
11940 O1     -0.796686   23.414509   11.916163 O    1939 MOH    -0.6497 ****
11941 HO1    -1.072659   24.098325   12.530639 H    1939 MOH     0.4215 ****
11942 HC1    -4.092201   26.343691   -6.366083 H    1940 MOH     0.0372 ****
11943 C1     -4.673015   26.724995   -5.526040 C    1940 MOH     0.1166 ****
11944 HC2    -4.375680   27.732143   -5.234005 H    1940 MOH     0.0372 ****
11945 HC3    -4.465169   26.069756   -4.679633 H    1940 MOH     0.0372 ****
11946 O1     -6.052305   26.681312   -5.811004 O    1940 MOH    -0.6497 ****
11947 HO1    -6.457605   26.006478   -5.261582 H    1940 MOH     0.4215 ****
11948 HC1   -15.514499   15.986840    4.659833 H    1941 MOH     0.0372 ****
11949 C1    -15.905942   15.217700    3.995153 C    1941 MOH     0.1166 ****
11950 HC2   -15.406534   15.251585    3.027124 H    1941 MOH     0.0372 ****
11951 HC3   -16.977504   15.380183    3.870702 H    1941 MOH     0.0372 ****
11952 O1    -15.765069   13.950906    4.579930 O    1941 MOH    -0.6497 ****
11953 HO1   -16.211361   13.950497    5.429166 H    1941 MOH     0.4215 ****
11954 HC1     0.705580   13.554905    0.279307 H    1942 MOH     0.0372 ****
11955 C1      0.688837   12.547756   -0.138593 C    1942 MOH     0.1166 ****
11956 HC2     1.190554   11.889252    0.569221 H    1942 MOH     0.0372 ****
11957 HC3     1.240206   12.519179   -1.079045 H    1942 MOH     0.0372 ****
11958 O1     -0.654080   12.112155   -0.287793 O    1942 MOH    -0.6497 ****
11959 HO1    -1.145983   12.373026    0.494975 H    1942 MOH     0.4215 ****
11960 HC1    -5.679337    9.017633    1.817971 H    1943 MOH     0.0372 ****
11961 C1     -5.865244    9.603469    0.917824 C    1943 MOH     0.1166 ****
11962 HC2    -5.847346    8.979666    0.024042 H    1943 MOH     0.0372 ****
11963 HC3    -5.117575   10.388939    0.808930 H    1943 MOH     0.0372 ****
11964 O1     -7.107701   10.191755    1.047225 O    1943 MOH    -0.6497 ****
11965 HO1    -7.406192   10.302391    0.141421 H    1943 MOH     0.4215 ****
11966 HC1    -4.494614   12.592663    3.237135 H    1944 MOH     0.0372 ****
11967 C1     -3.740595   11.839037    3.009446 C    1944 MOH     0.1166 ****
11968 HC2    -4.226724   10.949464    2.609931 H    1944 MOH     0.0372 ****
11969 HC3    -3.251579   11.549589    3.939292 H    1944 MOH     0.0372 ****
11970 O1     -2.806442   12.381191    2.064752 O    1944 MOH    -0.6497 ****
11971 HO1    -2.589936   13.278929    2.324260 H    1944 MOH     0.4215 ****
11972 HC1    -9.152099   10.368527    2.725189 H    1945 MOH     0.0372 ****
11973 C1     -9.063764   11.354446    3.181273 C    1945 MOH     0.1166 ****
11974 HC2    -9.664786   11.386290    4.089198 H    1945 MOH     0.0372 ****
11975 HC3    -9.415948   12.089702    2.457903 H    1945 MOH     0.0372 ****
11976 O1     -7.723734   11.558162    3.488865 O    1945 MOH    -0.6497 ****
11977 HO1    -7.238760   11.091535    2.805092 H    1945 MOH     0.4215 ****
11978 HC1     0.792760   22.160779   -5.052278 H    1946 MOH     0.0372 ****
11979 C1      1.213071   23.044228   -4.571445 C    1946 MOH     0.1166 ****
11980 HC2     1.466527   23.786015   -5.328757 H    1946 MOH     0.0372 ****
11981 HC3     2.099881   22.761312   -4.005053 H    1946 MOH     0.0372 ****
11982 O1      0.207904   23.540658   -3.748373 O    1946 MOH    -0.6497 ****
11983 HO1     0.564129   23.737025   -2.879339 H    1946 MOH     0.4215 ****
11984 HC1    -4.856035   24.468606    7.523616 H    1947 MOH     0.0372 ****
11985 C1     -4.898759   25.342666    6.873785 C    1947 MOH     0.1166 ****
11986 HC2    -4.097975   26.042812    7.112080 H    1947 MOH     0.0372 ****
11987 HC3    -5.838108   25.858692    7.068946 H    1947 MOH     0.0372 ****
11988 O1     -4.898182   24.988306    5.482199 O    1947 MOH    -0.6497 ****
11989 HO1    -4.789063   25.780716    4.951161 H    1947 MOH     0.4215 ****
11990 HC1    -7.188531    5.531193    3.539069 H    1948 MOH     0.0372 ****
11991 C1     -6.112350    5.539358    3.369364 C    1948 MOH     0.1166 ****
11992 HC2    -5.692039    6.399537    3.889087 H    1948 MOH     0.0372 ****
11993 HC3    -5.908545    5.599779    2.300218 H    1948 MOH     0.0372 ****
11994 O1     -5.518834    4.394630    3.869995 O    1948 MOH    -0.6497 ****
11995 HO1    -5.980714    4.133351    4.669026 H    1948 MOH     0.4215 ****
11996 HC1   -10.542358   20.199146   -3.862217 H    1949 MOH     0.0372 ****
11997 C1    -11.124905   19.326311   -3.566647 C    1949 MOH     0.1166 ****
11998 HC2   -10.788887   18.411426   -4.053843 H    1949 MOH     0.0372 ****
11999 HC3   -12.145082   19.506348   -3.903937 H    1949 MOH     0.0372 ****
12000 O1    -11.131833   19.179341   -2.163747 O    1949 MOH    -0.6497 ****
12001 HO1   -11.318317   20.041154   -1.782616 H    1949 MOH     0.4215 ****
12002 HC1   -11.373165   17.184640    0.408707 H    1950 MOH     0.0372 ****
12003 C1    -10.341440   16.900908    0.202939 C    1950 MOH     0.1166 ****
12004 HC2   -10.070663   16.075021    0.859842 H    1950 MOH     0.0372 ****
12005 HC3    -9.693076   17.751697    0.413657 H    1950 MOH     0.0372 ****
12006 O1    -10.203454   16.581658   -1.158948 O    1950 MOH    -0.6497 ****
12007 HO1   -10.500212   17.374476   -1.611497 H    1950 MOH     0.4215 ****
12008 HC1     0.252360   12.622466    8.051825 H    1951 MOH     0.0372 ****
12009 C1      0.327415   13.664315    7.742112 C    1951 MOH     0.1166 ****
12010 HC2     1.366068   13.888852    7.498867 H    1951 MOH     0.0372 ****
12011 HC3    -0.034583   14.265665    8.577205 H    1951 MOH     0.0372 ****
12012 O1     -0.560549   13.821899    6.665896 O    1951 MOH    -0.6497 ****
12013 HO1    -0.193355   13.301383    5.948182 H    1951 MOH     0.4215 ****
12014 HC1   -10.022743    8.709814    8.600540 H    1952 MOH     0.0372 ****
12015 C1     -9.030278    8.730635    8.150113 C    1952 MOH     0.1166 ****
12016 HC2    -8.507199    9.641845    8.440026 H    1952 MOH     0.0372 ****
12017 HC3    -9.090322    8.675113    7.063997 H    1952 MOH     0.0372 ****
12018 O1     -8.295311    7.665923    8.598418 O    1952 MOH    -0.6497 ****
12019 HO1    -8.742180    6.869839    8.302848 H    1952 MOH     0.4215 ****
12020 HC1   -12.082729   20.939300    1.605839 H    1953 MOH     0.0372 ****
12021 C1    -12.322329   20.306515    2.460024 C    1953 MOH     0.1166 ****
12022 HC2   -13.367910   20.431031    2.740746 H    1953 MOH     0.0372 ****
12023 HC3   -11.690131   20.613926    3.293703 H    1953 MOH     0.0372 ****
12024 O1    -12.020375   18.956438    2.143948 O    1953 MOH    -0.6497 ****
12025 HO1   -12.482832   18.683320    1.348452 H    1953 MOH     0.4215 ****
12026 HC1   -14.676186   13.000912   -7.493918 H    1954 MOH     0.0372 ****
12027 C1    -13.888103   13.035205   -8.246280 C    1954 MOH     0.1166 ****
12028 HC2   -14.308414   13.426715   -9.173296 H    1954 MOH     0.0372 ****
12029 HC3   -13.490309   12.037446   -8.432956 H    1954 MOH     0.0372 ****
12030 O1    -12.881781   13.935392   -7.896262 O    1954 MOH    -0.6497 ****
12031 HO1   -12.054438   13.470397   -8.039804 H    1954 MOH     0.4215 ****
12032 HC1    -1.125198   21.095659   -7.926667 H    1955 MOH     0.0372 ****
12033 C1     -0.381571   20.574734   -8.529122 C    1955 MOH     0.1166 ****
12034 HC2     0.534107   21.164245   -8.577205 H    1955 MOH     0.0372 ****
12035 HC3    -0.717589   20.453484   -9.559377 H    1955 MOH     0.0372 ****
12036 O1     -0.043243   19.345907   -7.945052 O    1955 MOH    -0.6497 ****
12037 HO1    -0.747033   19.074422   -7.351789 H    1955 MOH     0.4215 ****
12038 HC1    -0.409284   15.418558   -3.266833 H    1956 MOH     0.0372 ****
12039 C1     -0.448543   14.348948   -3.471894 C    1956 MOH     0.1166 ****
12040 HC2    -1.226812   13.920695   -2.840448 H    1956 MOH     0.0372 ****
12041 HC3     0.520250   13.912530   -3.227943 H    1956 MOH     0.0372 ****
12042 O1     -0.737219   14.057050   -4.840146 O    1956 MOH    -0.6497 ****
12043 HO1    -0.307670   13.242595   -5.112382 H    1956 MOH     0.4215 ****
12044 HC1     3.752257   14.098691   -5.513312 H    1957 MOH     0.0372 ****
12045 C1      3.229755   15.027864   -5.285623 C    1957 MOH     0.1166 ****
12046 HC2     2.197453   14.814759   -5.007023 H    1957 MOH     0.0372 ****
12047 HC3     3.270170   15.674122   -6.161729 H    1957 MOH     0.0372 ****
12048 O1      3.917379   15.591247   -4.219306 O    1957 MOH    -0.6497 ****
12049 HO1     4.379837   14.875996   -3.776657 H    1957 MOH     0.4215 ****
12050 HC1    -2.847434    9.312797    4.126675 H    1958 MOH     0.0372 ****
12051 C1     -2.596286    8.792280    5.050864 C    1958 MOH     0.1166 ****
12052 HC2    -3.263126    7.938633    5.171779 H    1958 MOH     0.0372 ****
12053 HC3    -2.719262    9.462216    5.901513 H    1958 MOH     0.0372 ****
12054 O1     -1.256256    8.361578    4.953990 O    1958 MOH    -0.6497 ****
12055 HO1    -1.066308    7.805952    5.712716 H    1958 MOH     0.4215 ****
12056 HC1   -11.321204   15.541033    3.347443 H    1959 MOH     0.0372 ****
12057 C1    -12.330989   15.940299    3.439367 C    1959 MOH     0.1166 ****
12058 HC2   -12.943558   15.198921    3.952727 H    1959 MOH     0.0372 ****
12059 HC3   -12.732248   16.132176    2.443761 H    1959 MOH     0.0372 ****
12060 O1    -12.262862   17.129119    4.201628 O    1959 MOH    -0.6497 ****
12061 HO1   -11.928576   17.822324    3.627458 H    1959 MOH     0.4215 ****
12062 HC1     1.136860    8.884952   -0.929138 H    1960 MOH     0.0372 ****
12063 C1      2.008082    9.388323   -1.348453 C    1960 MOH     0.1166 ****
12064 HC2     1.710169   10.337500   -1.791809 H    1960 MOH     0.0372 ****
12065 HC3     2.446868    8.776767   -2.137584 H    1960 MOH     0.0372 ****
12066 O1      2.976876    9.663482   -0.362746 O    1960 MOH    -0.6497 ****
12067 HO1     3.407002    8.825348   -0.179605 H    1960 MOH     0.4215 ****
12068 HC1   -15.577430   22.777234    1.771302 H    1961 MOH     0.0372 ****
12069 C1    -14.714869   23.240187    1.291884 C    1961 MOH     0.1166 ****
12070 HC2   -13.927940   23.354905    2.037881 H    1961 MOH     0.0372 ****
12071 HC3   -15.031834   24.232230    0.969443 H    1961 MOH     0.0372 ****
12072 O1    -14.332085   22.452676    0.132936 O    1961 MOH    -0.6497 ****
12073 HO1   -15.026060   22.498808   -0.528209 H    1961 MOH     0.4215 ****
12074 HC1    -8.891136   18.214651    8.032026 H    1962 MOH     0.0372 ****
12075 C1     -8.283187   19.085444    7.783831 C    1962 MOH     0.1166 ****
12076 HC2    -7.233564   18.816000    7.669280 H    1962 MOH     0.0372 ****
12077 HC3    -8.339767   19.807636    8.599125 H    1962 MOH     0.0372 ****
12078 O1     -8.678094   19.647602    6.573972 O    1962 MOH    -0.6497 ****
12079 HO1    -8.396347   19.049110    5.878178 H    1962 MOH     0.4215 ****
12080 HC1    -7.418316   15.208718  -12.677011 H    1963 MOH     0.0372 ****
12081 C1     -6.494555   15.396921  -13.225018 C    1963 MOH     0.1166 ****
12082 HC2    -5.903926   14.482036  -13.187542 H    1963 MOH     0.0372 ****
12083 HC3    -5.972053   16.220358  -12.737822 H    1963 MOH     0.0372 ****
12084 O1     -6.767642   15.749239  -14.579128 O    1963 MOH    -0.6497 ****
12085 HO1    -5.985910   16.171368  -14.942581 H    1963 MOH     0.4215 ****
12086 HC1    -3.310469   24.464524   -2.655893 H    1964 MOH     0.0372 ****
12087 C1     -4.325450   24.081179   -2.759838 C    1964 MOH     0.1166 ****
12088 HC2    -5.046561   24.898492   -2.738625 H    1964 MOH     0.0372 ****
12089 HC3    -4.560432   23.386340   -1.953736 H    1964 MOH     0.0372 ****
12090 O1     -4.453045   23.369194   -3.942121 O    1964 MOH    -0.6497 ****
12091 HO1    -3.732512   22.736000   -3.973940 H    1964 MOH     0.4215 ****
12092 HC1    -0.436419   16.182391    4.603972 H    1965 MOH     0.0372 ****
12093 C1     -1.058803   17.076863    4.594780 C    1965 MOH     0.1166 ****
12094 HC2    -0.614820   17.863965    5.204306 H    1965 MOH     0.0372 ****
12095 HC3    -2.030483   16.798846    5.004195 H    1965 MOH     0.0372 ****
12096 O1     -1.238359   17.529610    3.273197 O    1965 MOH    -0.6497 ****
12097 HO1    -0.380993   17.805178    2.940150 H    1965 MOH     0.4215 ****
12098 HC1    -4.452467   21.829281   -6.876614 H    1966 MOH     0.0372 ****
12099 C1     -3.859529   21.490843   -7.725849 C    1966 MOH     0.1166 ****
12100 HC2    -3.492334   20.495126   -7.477654 H    1966 MOH     0.0372 ****
12101 HC3    -3.012556   22.160779   -7.877877 H    1966 MOH     0.0372 ****
12102 O1     -4.663778   21.439812   -8.896111 O    1966 MOH    -0.6497 ****
12103 HO1    -4.256746   20.789473   -9.473817 H    1966 MOH     0.4215 ****
12104 HC1    -8.695992   22.150164   -1.214103 H    1967 MOH     0.0372 ****
12105 C1     -8.514704   21.111989   -0.934795 C    1967 MOH     0.1166 ****
12106 HC2    -9.174038   20.474713   -1.523815 H    1967 MOH     0.0372 ****
12107 HC3    -8.739293   20.957263    0.120915 H    1967 MOH     0.0372 ****
12108 O1     -7.184489   20.716396   -1.175919 O    1967 MOH    -0.6497 ****
12109 HO1    -7.004933   20.824582   -2.112835 H    1967 MOH     0.4215 ****
12110 HC1    -4.807538   16.362020    2.444468 H    1968 MOH     0.0372 ****
12111 C1     -4.353741   17.241387    2.901259 C    1968 MOH     0.1166 ****
12112 HC2    -3.516583   17.558187    2.279005 H    1968 MOH     0.0372 ****
12113 HC3    -4.050054   16.992355    3.918079 H    1968 MOH     0.0372 ****
12114 O1     -5.304059   18.239146    2.865904 O    1968 MOH    -0.6497 ****
12115 HO1    -5.631994   18.294667    1.965050 H    1968 MOH     0.4215 ****
12116 HC1   -12.974735   27.834613    0.115258 H    1969 MOH     0.0372 ****
12117 C1    -13.882329   27.770927    0.714885 C    1969 MOH     0.1166 ****
12118 HC2   -14.493166   26.924220    0.402343 H    1969 MOH     0.0372 ****
12119 HC3   -14.431390   28.702958    0.582656 H    1969 MOH     0.0372 ****
12120 O1    -13.510516   27.587623    2.039296 O    1969 MOH    -0.6497 ****
12121 HO1   -12.983395   26.785007    2.037881 H    1969 MOH     0.4215 ****
12122 HC1     2.555410   19.681079    7.821308 H    1970 MOH     0.0372 ****
12123 C1      2.302531   20.545748    8.435077 C    1970 MOH     0.1166 ****
12124 HC2     3.110244   20.729052    9.142891 H    1970 MOH     0.0372 ****
12125 HC3     1.384544   20.313047    8.973892 H    1970 MOH     0.0372 ****
12126 O1      2.110273   21.654143    7.578770 O    1970 MOH    -0.6497 ****
12127 HO1     1.424958   21.383066    6.963587 H    1970 MOH     0.4215 ****
12128 HC1    -1.185242   12.421607    4.287188 H    1971 MOH     0.0372 ****
12129 C1     -0.362518   11.730851    4.101926 C    1971 MOH     0.1166 ****
12130 HC2    -0.087122   11.852101    3.054701 H    1971 MOH     0.0372 ****
12131 HC3    -0.670823   10.691043    4.208699 H    1971 MOH     0.0372 ****
12132 O1      0.727519   12.041528    4.986517 O    1971 MOH    -0.6497 ****
12133 HO1     1.338356   11.300966    4.999245 H    1971 MOH     0.4215 ****
12134 HC1     3.648911   13.379358    3.222286 H    1972 MOH     0.0372 ****
12135 C1      2.817527   14.062766    3.052580 C    1972 MOH     0.1166 ****
12136 HC2     1.895499   13.602670    3.409669 H    1972 MOH     0.0372 ****
12137 HC3     2.747090   14.250968    1.981313 H    1972 MOH     0.0372 ****
12138 O1      3.145462   15.283428    3.704532 O    1972 MOH    -0.6497 ****
12139 HO1     3.758608   15.086244    4.416589 H    1972 MOH     0.4215 ****
12140 HC1    -3.844518   15.608802   11.705446 H    1973 MOH     0.0372 ****
12141 C1     -4.735947   16.235463   11.673626 C    1973 MOH     0.1166 ****
12142 HC2    -5.624489   15.604719   11.633321 H    1973 MOH     0.0372 ****
12143 HC3    -4.726709   16.853551   10.775600 H    1973 MOH     0.0372 ****
12144 O1     -4.725554   17.082987   12.795097 O    1973 MOH    -0.6497 ****
12145 HO1    -3.969803   17.663107   12.678424 H    1973 MOH     0.4215 ****
12146 HC1     3.408734   16.205661   -0.755190 H    1974 MOH     0.0372 ****
12147 C1      2.398948   15.884778   -1.011163 C    1974 MOH     0.1166 ****
12148 HC2     1.701509   16.315480   -0.292035 H    1974 MOH     0.0372 ****
12149 HC3     2.317542   14.798429   -0.976515 H    1974 MOH     0.0372 ****
12150 O1      2.043878   16.344057   -2.283248 O    1974 MOH    -0.6497 ****
12151 HO1     2.642590   15.936625   -2.912573 H    1974 MOH     0.4215 ****
12152 HC1    -2.187523   16.870697   10.291939 H    1975 MOH     0.0372 ****
12153 C1     -1.962933   17.936634   10.342144 C    1975 MOH     0.1166 ****
12154 HC2    -2.322045   18.484503    9.470988 H    1975 MOH     0.0372 ****
12155 HC3    -0.876937   17.983174   10.270019 H    1975 MOH     0.0372 ****
12156 O1     -2.323777   18.534717   11.608572 O    1975 MOH    -0.6497 ****
12157 HO1    -2.395946   19.483486   11.482707 H    1975 MOH     0.4215 ****
12158 HC1    -3.100891    3.419733    1.659580 H    1976 MOH     0.0372 ****
12159 C1     -2.519499    4.177033    2.186374 C    1976 MOH     0.1166 ****
12160 HC2    -1.465835    3.932901    2.049195 H    1976 MOH     0.0372 ****
12161 HC3    -2.749284    4.187648    3.251277 H    1976 MOH     0.0372 ****
12162 O1     -2.647671    5.437296    1.634124 O    1976 MOH    -0.6497 ****
12163 HO1    -1.849195    5.913721    1.875247 H    1976 MOH     0.4215 ****
12164 HC1    -7.945437   14.776792    6.741556 H    1977 MOH     0.0372 ****
12165 C1     -7.600181   13.933759    6.144051 C    1977 MOH     0.1166 ****
12166 HC2    -6.860018   13.401812    6.742970 H    1977 MOH     0.0372 ****
12167 HC3    -7.158508   14.319554    5.225519 H    1977 MOH     0.0372 ****
12168 O1     -8.652691   13.016017    5.810296 O    1977 MOH    -0.6497 ****
12169 HO1    -8.373831   12.502849    5.048742 H    1977 MOH     0.4215 ****
12170 HC1    -0.788025   23.314080    0.519016 H    1978 MOH     0.0372 ****
12171 C1     -1.280505   23.750497   -0.350018 C    1978 MOH     0.1166 ****
12172 HC2    -2.222741   24.237946   -0.099702 H    1978 MOH     0.0372 ****
12173 HC3    -1.532807   22.916038   -1.004799 H    1978 MOH     0.0372 ****
12174 O1     -0.442770   24.675588   -1.050054 O    1978 MOH    -0.6497 ****
12175 HO1    -0.983747   25.375326   -1.421992 H    1978 MOH     0.4215 ****
12176 HC1    -2.880343    3.097216   -3.003083 H    1979 MOH     0.0372 ****
12177 C1     -2.913252    4.182340   -3.102078 C    1979 MOH     0.1166 ****
12178 HC2    -2.468115    4.651418   -2.224558 H    1979 MOH     0.0372 ****
12179 HC3    -3.950750    4.508123   -3.177031 H    1979 MOH     0.0372 ****
12180 O1     -2.227360    4.559562   -4.267389 O    1979 MOH    -0.6497 ****
12181 HO1    -2.125746    5.512822   -4.227084 H    1979 MOH     0.4215 ****
12182 HC1     5.553013   11.914155   -1.820093 H    1980 MOH     0.0372 ****
12183 C1      4.647150   12.238712   -2.331331 C    1980 MOH     0.1166 ****
12184 HC2     3.761495   11.845977   -1.832114 H    1980 MOH     0.0372 ****
12185 HC3     4.654656   11.890476   -3.364414 H    1980 MOH     0.0372 ****
12186 O1      4.554197   13.630839   -2.317189 O    1980 MOH    -0.6497 ****
12187 HO1     4.824397   13.916204   -1.441084 H    1980 MOH     0.4215 ****
12188 HC1    -1.912704   16.477962    0.164756 H    1981 MOH     0.0372 ****
12189 C1     -1.249328   15.656159    0.434163 C    1981 MOH     0.1166 ****
12190 HC2    -0.233192   16.042362    0.511945 H    1981 MOH     0.0372 ****
12191 HC3    -1.263185   14.873547   -0.324562 H    1981 MOH     0.0372 ****
12192 O1     -1.627493   15.229131    1.721098 O    1981 MOH    -0.6497 ****
12193 HO1    -1.573799   15.998271    2.292440 H    1981 MOH     0.4215 ****
12194 HC1     1.867208   22.677213    4.268096 H    1982 MOH     0.0372 ****
12195 C1      1.527727   21.931343    3.548969 C    1982 MOH     0.1166 ****
12196 HC2     1.021390   21.094026    4.030509 H    1982 MOH     0.0372 ****
12197 HC3     2.414537   21.534526    3.053994 H    1982 MOH     0.0372 ****
12198 O1      0.686527   22.551881    2.594375 O    1982 MOH    -0.6497 ****
12199 HO1     1.215957   23.236921    2.178596 H    1982 MOH     0.4215 ****
12200 HC1    -0.987789   24.888286    6.198498 H    1983 MOH     0.0372 ****
12201 C1     -1.299558   24.469423    7.155920 C    1983 MOH     0.1166 ****
12202 HC2    -1.826679   25.215701    7.748476 H    1983 MOH     0.0372 ****
12203 HC3    -0.406974   24.135884    7.684129 H    1983 MOH     0.0372 ****
12204 O1     -2.114199   23.355313    6.928939 O    1983 MOH    -0.6497 ****
12205 HO1    -2.800091   23.596588    6.303150 H    1983 MOH     0.4215 ****
12206 HC1    -8.308013   30.282470   -1.520987 H    1984 MOH     0.0372 ****
12207 C1     -9.215607   30.662141   -1.990506 C    1984 MOH     0.1166 ****
12208 HC2    -9.085126   30.642137   -3.073086 H    1984 MOH     0.0372 ****
12209 HC3    -9.358790   31.692968   -1.668772 H    1984 MOH     0.0372 ****
12210 O1    -10.355874   29.868915   -1.616446 O    1984 MOH    -0.6497 ****
12211 HO1   -11.128946   30.373918   -1.878783 H    1984 MOH     0.4215 ****
12212 HC1   -15.426164   10.105615   -1.516037 H    1985 MOH     0.0372 ****
12213 C1    -14.782419   10.889860   -1.912724 C    1985 MOH     0.1166 ****
12214 HC2   -14.748355   11.691251   -1.175212 H    1985 MOH     0.0372 ****
12215 HC3   -15.181368   11.329951   -2.827720 H    1985 MOH     0.0372 ****
12216 O1    -13.470679   10.425273   -2.143241 O    1985 MOH    -0.6497 ****
12217 HO1   -13.028428   11.212376   -2.468510 H    1985 MOH     0.4215 ****
12218 HC1    -6.150455   21.812543    4.990759 H    1986 MOH     0.0372 ****
12219 C1     -5.568486   22.055042    4.101219 C    1986 MOH     0.1166 ****
12220 HC2    -5.604859   21.233239    3.386334 H    1986 MOH     0.0372 ****
12221 HC3    -4.541380   22.198338    4.438509 H    1986 MOH     0.0372 ****
12222 O1     -6.034407   23.299383    3.569475 O    1986 MOH    -0.6497 ****
12223 HO1    -5.618715   23.976667    4.107583 H    1986 MOH     0.4215 ****
12224 HC1    -8.656155   17.246286    2.662257 H    1987 MOH     0.0372 ****
12225 C1     -8.493342   17.022157    3.716553 C    1987 MOH     0.1166 ****
12226 HC2    -7.925807   16.095434    3.808477 H    1987 MOH     0.0372 ****
12227 HC3    -9.477147   16.904582    4.170516 H    1987 MOH     0.0372 ****
12228 O1     -7.800522   18.098708    4.308401 O    1987 MOH    -0.6497 ****
12229 HO1    -6.962209   18.189339    3.850196 H    1987 MOH     0.4215 ****
12230 HC1   -10.720759   11.180124    7.421793 H    1988 MOH     0.0372 ****
12231 C1    -11.113935   11.614909    8.340324 C    1988 MOH     0.1166 ****
12232 HC2   -11.298110   12.679620    8.198903 H    1988 MOH     0.0372 ****
12233 HC3   -10.414764   11.470797    9.164104 H    1988 MOH     0.0372 ****
12234 O1    -12.278451   10.953955    8.669129 O    1988 MOH    -0.6497 ****
12235 HO1   -12.702803   11.403436    9.403813 H    1988 MOH     0.4215 ****
12236 HC1    -8.933860   17.141366   -6.673674 H    1989 MOH     0.0372 ****
12237 C1     -9.067228   16.118704   -7.026520 C    1989 MOH     0.1166 ****
12238 HC2   -10.066044   16.041137   -7.455027 H    1989 MOH     0.0372 ****
12239 HC3    -8.993905   15.401820   -6.209105 H    1989 MOH     0.0372 ****
12240 O1     -8.146932   15.841503   -8.038390 O    1989 MOH    -0.6497 ****
12241 HO1    -8.030884   14.893551   -8.130314 H    1989 MOH     0.4215 ****
12242 HC1    -5.798271   24.422066   -7.363810 H    1990 MOH     0.0372 ****
12243 C1     -6.645821   23.757438   -7.194105 C    1990 MOH     0.1166 ****
12244 HC2    -7.511269   24.401245   -7.037834 H    1990 MOH     0.0372 ****
12245 HC3    -6.413149   23.155680   -6.315878 H    1990 MOH     0.0372 ****
12246 O1     -6.779189   23.055659   -8.409621 O    1990 MOH    -0.6497 ****
12247 HO1    -5.933371   22.649860   -8.614682 H    1990 MOH     0.4215 ****
12248 HC1     5.152909   10.808210    2.617002 H    1991 MOH     0.0372 ****
12249 C1      5.536847   11.405069    1.789687 C    1991 MOH     0.1166 ****
12250 HC2     6.224471   10.787798    1.211274 H    1991 MOH     0.0372 ****
12251 HC3     6.037987   12.266881    2.231629 H    1991 MOH     0.0372 ****
12252 O1      4.471636   11.844753    1.002677 O    1991 MOH    -0.6497 ****
12253 HO1     3.942205   11.088677    0.741048 H    1991 MOH     0.4215 ****
12254 HC1    -4.380876   19.804370    7.217439 H    1992 MOH     0.0372 ****
12255 C1     -4.317368   18.881320    6.641147 C    1992 MOH     0.1166 ****
12256 HC2    -3.285643   18.677196    6.355476 H    1992 MOH     0.0372 ****
12257 HC3    -4.934555   18.993180    5.750192 H    1992 MOH     0.0372 ****
12258 O1     -4.835251   17.828040    7.406236 O    1992 MOH    -0.6497 ****
12259 HO1    -4.585258   17.003378    6.981972 H    1992 MOH     0.4215 ****
12260 HC1   -16.431908   19.111980   -1.265014 H    1993 MOH     0.0372 ****
12261 C1    -16.598185   20.182407   -1.146220 C    1993 MOH     0.1166 ****
12262 HC2   -16.244847   20.503291   -0.166170 H    1993 MOH     0.0372 ****
12263 HC3   -17.665128   20.395513   -1.218345 H    1993 MOH     0.0372 ****
12264 O1    -15.911138   20.896842   -2.155969 O    1993 MOH    -0.6497 ****
12265 HO1   -16.001782   20.366936   -2.950757 H    1993 MOH     0.4215 ****
12266 HC1    -9.768709   25.427990   -4.113948 H    1994 MOH     0.0372 ****
12267 C1     -8.897487   24.772751   -4.133039 C    1994 MOH     0.1166 ****
12268 HC2    -8.898065   24.201204   -5.060763 H    1994 MOH     0.0372 ****
12269 HC3    -8.925200   24.063624   -3.305017 H    1994 MOH     0.0372 ****
12270 O1     -7.719115   25.557404   -4.059500 O    1994 MOH    -0.6497 ****
12271 HO1    -7.748560   26.068123   -3.247035 H    1994 MOH     0.4215 ****
12272 HC1     5.044944   16.264857    1.352695 H    1995 MOH     0.0372 ****
12273 C1      5.685226   15.389573    1.461590 C    1995 MOH     0.1166 ****
12274 HC2     5.535115   14.988673    2.464267 H    1995 MOH     0.0372 ****
12275 HC3     6.723879   15.702291    1.355524 H    1995 MOH     0.0372 ****
12276 O1      5.305907   14.447744    0.458205 O    1995 MOH    -0.6497 ****
12277 HO1     5.234893   13.574501    0.850649 H    1995 MOH     0.4215 ****
12278 HC1   -13.953921   18.662907   -1.588869 H    1996 MOH     0.0372 ****
12279 C1    -13.686608   17.658208   -1.260065 C    1996 MOH     0.1166 ****
12280 HC2   -12.742063   17.368760   -1.720391 H    1996 MOH     0.0372 ****
12281 HC3   -14.449287   16.944590   -1.569777 H    1996 MOH     0.0372 ****
12282 O1    -13.519176   17.665965    0.168998 O    1996 MOH    -0.6497 ****
12283 HO1   -14.347674   17.853759    0.615890 H    1996 MOH     0.4215 ****
12284 HC1     3.180680   18.478379    5.773527 H    1997 MOH     0.0372 ****
12285 C1      4.039200   18.840087    5.207841 C    1997 MOH     0.1166 ****
12286 HC2     3.691058   19.359379    4.315473 H    1997 MOH     0.0372 ****
12287 HC3     4.668512   17.999504    4.914392 H    1997 MOH     0.0372 ****
12288 O1      4.788601   19.729660    6.003336 O    1997 MOH    -0.6497 ****
12289 HO1     4.956032   19.311206    6.851158 H    1997 MOH     0.4215 ****
12290 HC1     3.979733   19.799471   -4.158495 H    1998 MOH     0.0372 ****
12291 C1      3.532864   20.213434   -5.062178 C    1998 MOH     0.1166 ****
12292 HC2     2.505181   20.532276   -4.890351 H    1998 MOH     0.0372 ****
12293 HC3     3.563464   19.441029   -5.831510 H    1998 MOH     0.0372 ****
12294 O1      4.343464   21.277738   -5.450379 O    1998 MOH    -0.6497 ****
12295 HO1     4.525329   21.823974   -4.682461 H    1998 MOH     0.4215 ****
12296 HC1    -2.794317   17.547165   -9.564326 H    1999 MOH     0.0372 ****
12297 C1     -3.718655   18.062374   -9.825956 C    1999 MOH     0.1166 ****
12298 HC2    -4.431683   18.015425   -9.002177 H    1999 MOH     0.0372 ****
12299 HC3    -4.154555   17.616159  -10.719032 H    1999 MOH     0.0372 ****
12300 O1     -3.480787   19.411635  -10.105263 O    1999 MOH    -0.6497 ****
12301 HO1    -2.976183   19.441845  -10.921264 H    1999 MOH     0.4215 ****
12302 HC1   -11.072366   24.740500    0.487903 H    2000 MOH     0.0372 ****
12303 C1    -11.443025   24.343682    1.432598 C    2000 MOH     0.1166 ****
12304 HC2   -10.588546   24.220800    2.097986 H    2000 MOH     0.0372 ****
12305 HC3   -11.914720   23.367969    1.316633 H    2000 MOH     0.0372 ****
12306 O1    -12.298080   25.278979    1.994748 O    2000 MOH    -0.6497 ****
12307 HO1   -12.113328   25.280612    2.936614 H    2000 MOH     0.4215 ****
12308 HC1   -11.188413   11.685944   12.639534 H    2001 MOH     0.0372 ****
12309 C1    -10.294098   11.243403   13.079354 C    2001 MOH     0.1166 ****
12310 HC2   -10.228280   11.516521   14.132236 H    2001 MOH     0.0372 ****
12311 HC3    -9.403824   11.613276   12.570237 H    2001 MOH     0.0372 ****
12312 O1    -10.345482    9.830864   12.963388 O    2001 MOH    -0.6497 ****
12313 HO1    -9.440197    9.522636   13.051777 H    2001 MOH     0.4215 ****
12314 HC1   -11.784239   20.065648    6.226075 H    2002 MOH     0.0372 ****
12315 C1    -11.850634   19.805186    7.282492 C    2002 MOH     0.1166 ****
12316 HC2   -11.742669   18.727002    7.406236 H    2002 MOH     0.0372 ****
12317 HC3   -12.834439   20.119945    7.631096 H    2002 MOH     0.0372 ****
12318 O1    -10.866829   20.524111    8.005863 O    2002 MOH    -0.6497 ****
12319 HO1   -10.044105   20.415109    7.522909 H    2002 MOH     0.4215 ****
12320 HC1    -4.237693   22.626590   11.074706 H    2003 MOH     0.0372 ****
12321 C1     -3.800062   21.723137   10.649735 C    2003 MOH     0.1166 ****
12322 HC2    -3.556420   21.918279    9.606045 H    2003 MOH     0.0372 ****
12323 HC3    -4.505584   20.896842   10.743073 H    2003 MOH     0.0372 ****
12324 O1     -2.663837   21.425524   11.397147 O    2003 MOH    -0.6497 ****
12325 HO1    -2.036257   22.151389   11.349064 H    2003 MOH     0.4215 ****
12326 HC1    -7.457576   15.428764   10.441846 H    2004 MOH     0.0372 ****
12327 C1     -7.868072   14.472239   10.764993 C    2004 MOH     0.1166 ****
12328 HC2    -7.089226   13.709631   10.786207 H    2004 MOH     0.0372 ****
12329 HC3    -8.653268   14.193405   10.062836 H    2004 MOH     0.0372 ****
12330 O1     -8.463897   14.616759   12.020815 O    2004 MOH    -0.6497 ****
12331 HO1    -7.843246   15.065832   12.599228 H    2004 MOH     0.4215 ****
12332 HC1   -11.074675   26.154263   -2.587304 H    2005 MOH     0.0372 ****
12333 C1    -10.508294   26.459225   -1.706956 C    2005 MOH     0.1166 ****
12334 HC2   -10.122625   25.565569   -1.215517 H    2005 MOH     0.0372 ****
12335 HC3   -11.162432   26.983007   -1.010456 H    2005 MOH     0.0372 ****
12336 O1     -9.413638   27.273680   -2.112128 O    2005 MOH    -0.6497 ****
12337 HO1    -9.764667   28.148965   -2.288905 H    2005 MOH     0.4215 ****
12338 HC1   -19.158156   16.749448   -3.190466 H    2006 MOH     0.0372 ****
12339 C1    -18.599281   17.381824   -2.501037 C    2006 MOH     0.1166 ****
12340 HC2   -18.554248   18.382441   -2.931665 H    2006 MOH     0.0372 ****
12341 HC3   -17.586031   16.987456   -2.420427 H    2006 MOH     0.0372 ****
12342 O1    -19.264389   17.394072   -1.212688 O    2006 MOH    -0.6497 ****
12343 HO1   -18.797312   16.775984   -0.647003 H    2006 MOH     0.4215 ****
12344 HC1    -3.146501    1.543832    0.159806 H    2007 MOH     0.0372 ****
12345 C1     -2.308766    1.772043   -0.499925 C    2007 MOH     0.1166 ****
12346 HC2    -1.951386    2.773476   -0.264458 H    2007 MOH     0.0372 ****
12347 HC3    -2.659218    1.727135   -1.530886 H    2007 MOH     0.0372 ****
12348 O1     -1.227966    0.830214   -0.295571 O    2007 MOH    -0.6497 ****
12349 HO1    -0.394850    1.218458   -0.573464 H    2007 MOH     0.4215 ****
12350 HC1    -2.256805   20.412660    7.272593 H    2008 MOH     0.0372 ****
12351 C1     -1.331312   20.712314    7.766154 C    2008 MOH     0.1166 ****
12352 HC2    -0.887330   19.858258    8.278099 H    2008 MOH     0.0372 ****
12353 HC3    -1.577263   21.464307    8.515687 H    2008 MOH     0.0372 ****
12354 O1     -0.449121   21.211601    6.740142 O    2008 MOH    -0.6497 ****
12355 HO1    -0.639646   22.149756    6.665188 H    2008 MOH     0.4215 ****
12356 HC1   -13.227614   11.570002    0.591848 H    2009 MOH     0.0372 ****
12357 C1    -12.456274   11.276879    1.304612 C    2009 MOH     0.1166 ****
12358 HC2   -11.558495   11.020499    0.741755 H    2009 MOH     0.0372 ****
12359 HC3   -12.786519   10.388531    1.843427 H    2009 MOH     0.0372 ****
12360 O1    -12.195889   12.354246    2.213244 O    2009 MOH    -0.6497 ****
12361 HO1   -12.862152   12.329343    2.904087 H    2009 MOH     0.4215 ****
12362 HC1   -13.356941   12.180741    6.474977 H    2010 MOH     0.0372 ****
12363 C1    -12.873699   12.030097    5.509776 C    2010 MOH     0.1166 ****
12364 HC2   -12.418169   11.040504    5.489977 H    2010 MOH     0.0372 ****
12365 HC3   -12.113328   12.799237    5.371183 H    2010 MOH     0.0372 ****
12366 O1    -13.904846   12.079495    4.523362 O    2010 MOH    -0.6497 ****
12367 HO1   -14.417533   12.880479    4.653470 H    2010 MOH     0.4215 ****
12368 HC1   -17.657046   13.608385    0.141421 H    2011 MOH     0.0372 ****
12369 C1    -17.069303   14.524086    0.202939 C    2011 MOH     0.1166 ****
12370 HC2   -16.603381   14.734742   -0.760140 H    2011 MOH     0.0372 ****
12371 HC3   -16.280643   14.375484    0.939745 H    2011 MOH     0.0372 ****
12372 O1    -17.851035   15.648810    0.578413 O    2011 MOH    -0.6497 ****
12373 HO1   -18.251139   15.484694    1.435426 H    2011 MOH     0.4215 ****
12374 HC1    -3.839899   24.281629    2.620538 H    2012 MOH     0.0372 ****
12375 C1     -2.894199   24.624557    3.040559 C    2012 MOH     0.1166 ****
12376 HC2    -3.007937   25.599046    3.516442 H    2012 MOH     0.0372 ****
12377 HC3    -2.164428   24.738050    2.238700 H    2012 MOH     0.0372 ****
12378 O1     -2.452526   23.702324    4.012831 O    2012 MOH    -0.6497 ****
12379 HO1    -1.621142   23.314080    3.730695 H    2012 MOH     0.4215 ****
12380 HC1    -4.523597   28.415796    2.054145 H    2013 MOH     0.0372 ****
12381 C1     -5.324382   28.021836    2.679934 C    2013 MOH     0.1166 ****
12382 HC2    -5.890185   27.291480    2.100814 H    2013 MOH     0.0372 ****
12383 HC3    -5.996995   28.798733    3.041266 H    2013 MOH     0.0372 ****
12384 O1     -4.827283   27.280865    3.724331 O    2013 MOH    -0.6497 ****
12385 HO1    -4.282842   27.876908    4.243348 H    2013 MOH     0.4215 ****
12386 HC1     7.585747   29.654829    6.560537 H    2014 MOH     0.0372 ****
12387 C1      7.646947   30.434584    7.318555 C    2014 MOH     0.1166 ****
12388 HC2     8.007213   29.988776    8.246279 H    2014 MOH     0.0372 ****
12389 HC3     6.653904   30.859978    7.464219 H    2014 MOH     0.0372 ****
12390 O1      8.518168   31.457245    6.890755 O    2014 MOH    -0.6497 ****
12391 HO1     9.404978   31.097170    6.824287 H    2014 MOH     0.4215 ****
12392 HC1    13.844224   34.403982    0.779939 H    2015 MOH     0.0372 ****
12393 C1     14.277814   34.597083    1.760696 C    2015 MOH     0.1166 ****
12394 HC2    14.563603   35.647914    1.811607 H    2015 MOH     0.0372 ****
12395 HC3    15.165779   33.977770    1.887268 H    2015 MOH     0.0372 ****
12396 O1     13.323454   34.282324    2.768323 O    2015 MOH    -0.6497 ****
12397 HO1    13.524372   33.390709    3.061065 H    2015 MOH     0.4215 ****
12398 HC1     7.207006   23.550292   -6.852572 H    2016 MOH     0.0372 ****
12399 C1      7.019944   22.564373   -6.427601 C    2016 MOH     0.1166 ****
12400 HC2     6.627923   22.659086   -5.415024 H    2016 MOH     0.0372 ****
12401 HC3     7.977191   22.047939   -6.359011 H    2016 MOH     0.0372 ****
12402 O1      6.178745   21.760532   -7.276836 O    2016 MOH    -0.6497 ****
12403 HO1     5.462831   21.414337   -6.739435 H    2016 MOH     0.4215 ****
12404 HC1     9.837414   24.022228   -0.215668 H    2017 MOH     0.0372 ****
12405 C1      8.988709   24.457012    0.312541 C    2017 MOH     0.1166 ****
12406 HC2     8.852454   25.484165   -0.025456 H    2017 MOH     0.0372 ****
12407 HC3     9.153253   24.444765    1.390172 H    2017 MOH     0.0372 ****
12408 O1      7.823038   23.758907   -0.021213 O    2017 MOH    -0.6497 ****
12409 HO1     7.850174   22.958333    0.508410 H    2017 MOH     0.4215 ****
12410 HC1     8.731788   31.097987   -9.829491 H    2018 MOH     0.0372 ****
12411 C1      7.939663   30.565631   -9.303404 C    2018 MOH     0.1166 ****
12412 HC2     7.966799   30.823236   -8.244865 H    2018 MOH     0.0372 ****
12413 HC3     8.105363   29.498062   -9.445533 H    2018 MOH     0.0372 ****
12414 O1      6.711062   30.981228   -9.859190 O    2018 MOH    -0.6497 ****
12415 HO1     6.016510   30.622378   -9.301283 H    2018 MOH     0.4215 ****
12416 HC1     0.089431   32.183927    7.016620 H    2019 MOH     0.0372 ****
12417 C1     -0.930746   31.891213    7.264815 C    2019 MOH     0.1166 ****
12418 HC2    -1.091827   31.948776    8.340324 H    2019 MOH     0.0372 ****
12419 HC3    -1.139170   30.868960    6.948031 H    2019 MOH     0.0372 ****
12420 O1     -1.816979   32.783644    6.663774 O    2019 MOH    -0.6497 ****
12421 HO1    -1.365491   33.160049    5.904341 H    2019 MOH     0.4215 ****
12422 HC1    12.796911   37.156800   -2.306582 H    2020 MOH     0.0372 ****
12423 C1     12.845408   36.069226   -2.357494 C    2020 MOH     0.1166 ****
12424 HC2    12.467244   35.714459   -3.315624 H    2020 MOH     0.0372 ****
12425 HC3    12.238613   35.622603   -1.569777 H    2020 MOH     0.0372 ****
12426 O1     14.181974   35.634850   -2.283955 O    2020 MOH    -0.6497 ****
12427 HO1    14.149643   34.675467   -2.262742 H    2020 MOH     0.4215 ****
12428 HC1     3.886664   36.132097   -7.879998 H    2021 MOH     0.0372 ****
12429 C1      3.932275   35.677308   -8.869948 C    2021 MOH     0.1166 ****
12430 HC2     4.849685   35.098412   -8.978842 H    2021 MOH     0.0372 ****
12431 HC3     3.921883   36.455021   -9.632916 H    2021 MOH     0.0372 ****
12432 O1      2.828959   34.840807   -9.087029 O    2021 MOH    -0.6497 ****
12433 HO1     3.088189   33.953275   -8.829643 H    2021 MOH     0.4215 ****
12434 HC1    11.993817   31.575229   -9.384721 H    2022 MOH     0.0372 ****
12435 C1     12.192425   32.535837   -8.910253 C    2022 MOH     0.1166 ****
12436 HC2    13.257059   32.753025   -8.993691 H    2022 MOH     0.0372 ****
12437 HC3    11.963217   32.500728   -7.845350 H    2022 MOH     0.0372 ****
12438 O1     11.399146   33.531555   -9.561498 O    2022 MOH    -0.6497 ****
12439 HO1    11.446489   34.307635   -8.997934 H    2022 MOH     0.4215 ****
12440 HC1    -2.431280   30.288431   -0.939038 H    2023 MOH     0.0372 ****
12441 C1     -1.516757   30.594617   -1.446741 C    2023 MOH     0.1166 ****
12442 HC2    -0.921509   31.249039   -0.809637 H    2023 MOH     0.0372 ****
12443 HC3    -1.792153   31.140853   -2.349009 H    2023 MOH     0.0372 ****
12444 O1     -0.814699   29.455196   -1.844842 O    2023 MOH    -0.6497 ****
12445 HO1     0.120031   29.654013   -1.755039 H    2023 MOH     0.4215 ****
12446 HC1    10.835075   26.107968   -4.372748 H    2024 MOH     0.0372 ****
12447 C1     10.882418   26.831384   -3.558161 C    2024 MOH     0.1166 ****
12448 HC2    10.089138   27.558882   -3.729281 H    2024 MOH     0.0372 ****
12449 HC3    11.843128   27.344960   -3.604830 H    2024 MOH     0.0372 ****
12450 O1     10.697088   26.189618   -2.264156 O    2024 MOH    -0.6497 ****
12451 HO1    10.505408   26.865269   -1.608668 H    2024 MOH     0.4215 ****
12452 HC1    -5.485463   29.950809   -5.794740 H    2025 MOH     0.0372 ****
12453 C1     -5.442739   30.192492   -4.732666 C    2025 MOH     0.1166 ****
12454 HC2    -4.405818   30.130438   -4.401740 H    2025 MOH     0.0372 ****
12455 HC3    -6.040296   29.490713   -4.150717 H    2025 MOH     0.0372 ****
12456 O1     -5.876329   31.486231   -4.463258 O    2025 MOH    -0.6497 ****
12457 HO1    -6.645937   31.677699   -5.004195 H    2025 MOH     0.4215 ****
12458 HC1     5.574836   28.792609    8.639431 H    2026 MOH     0.0372 ****
12459 C1      5.874481   27.745452    8.624581 C    2026 MOH     0.1166 ****
12460 HC2     6.508412   27.556841    7.757668 H    2026 MOH     0.0372 ****
12461 HC3     5.006724   27.091438    8.545385 H    2026 MOH     0.0372 ****
12462 O1      6.579426   27.434367    9.818178 O    2026 MOH    -0.6497 ****
12463 HO1     7.013593   26.586027    9.699384 H    2026 MOH     0.4215 ****
12464 HC1    -2.176091   32.060228   -5.407953 H    2027 MOH     0.0372 ****
12465 C1     -2.716491   32.929797   -5.781305 C    2027 MOH     0.1166 ****
12466 HC2    -3.159896   32.600341   -6.721050 H    2027 MOH     0.0372 ****
12467 HC3    -1.993648   33.732821   -5.927676 H    2027 MOH     0.0372 ****
12468 O1     -3.707801   33.268235   -4.787820 O    2027 MOH    -0.6497 ****
12469 HO1    -4.343464   32.554209   -4.705089 H    2027 MOH     0.4215 ****
12470 HC1    -3.732627   25.288205   -9.717062 H    2028 MOH     0.0372 ****
12471 C1     -3.319822   26.295762   -9.753831 C    2028 MOH     0.1166 ****
12472 HC2    -3.405270   26.766473   -8.774488 H    2028 MOH     0.0372 ****
12473 HC3    -3.896595   26.883640  -10.468009 H    2028 MOH     0.0372 ****
12474 O1     -1.980369   26.240240  -10.185166 O    2028 MOH    -0.6497 ****
12475 HO1    -1.946883   25.579695  -10.880959 H    2028 MOH     0.4215 ****
12476 HC1    12.380641   23.444964   -3.768172 H    2029 MOH     0.0372 ****
12477 C1     11.700523   22.876275   -3.133897 C    2029 MOH     0.1166 ****
12478 HC2    12.055016   22.913425   -2.103643 H    2029 MOH     0.0372 ****
12479 HC3    11.645675   21.839732   -3.465530 H    2029 MOH     0.0372 ****
12480 O1     10.467880   23.499261   -3.215922 O    2029 MOH    -0.6497 ****
12481 HO1    10.570071   24.392100   -2.880046 H    2029 MOH     0.4215 ****
12482 HC1     6.248604   29.908351    1.215516 H    2030 MOH     0.0372 ****
12483 C1      6.108308   29.754034    0.146371 C    2030 MOH     0.1166 ****
12484 HC2     5.912009   30.708518   -0.342947 H    2030 MOH     0.0372 ****
12485 HC3     5.274037   29.075117   -0.029699 H    2030 MOH     0.0372 ****
12486 O1      7.283793   29.199632   -0.405172 O    2030 MOH    -0.6497 ****
12487 HO1     7.930426   29.098795    0.296985 H    2030 MOH     0.4215 ****
12488 HC1     9.011803   37.944719    2.505986 H    2031 MOH     0.0372 ****
12489 C1      9.494467   36.978804    2.358908 C    2031 MOH     0.1166 ****
12490 HC2     8.721395   36.224769    2.211123 H    2031 MOH     0.0372 ****
12491 HC3    10.059116   36.736304    3.258348 H    2031 MOH     0.0372 ****
12492 O1     10.402639   37.006564    1.236023 O    2031 MOH    -0.6497 ****
12493 HO1    11.113935   37.610772    1.465125 H    2031 MOH     0.4215 ****
12494 HC1     3.704799   29.702186   -6.153243 H    2032 MOH     0.0372 ****
12495 C1      3.543718   28.689322   -5.784841 C    2032 MOH     0.1166 ****
12496 HC2     2.792586   28.734229   -4.997124 H    2032 MOH     0.0372 ****
12497 HC3     4.468633   28.288830   -5.369769 H    2032 MOH     0.0372 ****
12498 O1      3.092230   27.842615   -6.841258 O    2032 MOH    -0.6497 ****
12499 HO1     3.496953   26.984477   -6.691352 H    2032 MOH     0.4215 ****
12500 HC1    12.710308   23.819328    1.460883 H    2033 MOH     0.0372 ****
12501 C1     12.544032   23.906285    2.534978 C    2033 MOH     0.1166 ****
12502 HC2    12.616200   24.962423    2.794486 H    2033 MOH     0.0372 ****
12503 HC3    13.330960   23.352292    3.047630 H    2033 MOH     0.0372 ****
12504 O1     11.218435   23.387401    2.769030 O    2033 MOH    -0.6497 ****
12505 HO1    10.907244   23.736046    3.607659 H    2033 MOH     0.4215 ****
12506 HC1    -3.916225   32.389276    4.659833 H    2034 MOH     0.0372 ****
12507 C1     -4.307668   31.620137    3.995153 C    2034 MOH     0.1166 ****
12508 HC2    -3.808260   31.654021    3.027124 H    2034 MOH     0.0372 ****
12509 HC3    -5.379230   31.782619    3.870702 H    2034 MOH     0.0372 ****
12510 O1     -4.166795   30.353342    4.579930 O    2034 MOH    -0.6497 ****
12511 HO1    -4.613086   30.352934    5.429166 H    2034 MOH     0.4215 ****
12512 HC1    12.303854   29.957341    0.279307 H    2035 MOH     0.0372 ****
12513 C1     12.287111   28.950193   -0.138593 C    2035 MOH     0.1166 ****
12514 HC2    12.788828   28.291688    0.569221 H    2035 MOH     0.0372 ****
12515 HC3    12.838480   28.921615   -1.079045 H    2035 MOH     0.0372 ****
12516 O1     10.944194   28.514592   -0.287793 O    2035 MOH    -0.6497 ****
12517 HO1    10.452292   28.775462    0.494975 H    2035 MOH     0.4215 ****
12518 HC1     6.438552   33.748335   -0.589020 H    2036 MOH     0.0372 ****
12519 C1      5.375073   33.949193   -0.720542 C    2036 MOH     0.1166 ****
12520 HC2     4.793104   33.028185   -0.693672 H    2036 MOH     0.0372 ****
12521 HC3     5.209951   34.419903   -1.689985 H    2036 MOH     0.0372 ****
12522 O1      4.924740   34.839583    0.258801 O    2036 MOH    -0.6497 ****
12523 HO1     5.035014   35.734055   -0.071418 H    2036 MOH     0.4215 ****
12524 HC1    10.151492   36.675883   -3.385627 H    2037 MOH     0.0372 ****
12525 C1      9.747347   37.021670   -4.336686 C    2037 MOH     0.1166 ****
12526 HC2     8.814349   36.498295   -4.548818 H    2037 MOH     0.0372 ****
12527 HC3    10.468457   36.876741   -5.140666 H    2037 MOH     0.0372 ****
12528 O1      9.500818   38.387668   -4.182537 O    2037 MOH    -0.6497 ****
12529 HO1    10.325275   38.843273   -3.994446 H    2037 MOH     0.4215 ****
12530 HC1     5.918937   25.420070    1.817971 H    2038 MOH     0.0372 ****
12531 C1      5.733030   26.005906    0.917824 C    2038 MOH     0.1166 ****
12532 HC2     5.750928   25.382103    0.024042 H    2038 MOH     0.0372 ****
12533 HC3     6.480699   26.791376    0.808930 H    2038 MOH     0.0372 ****
12534 O1      4.490573   26.594192    1.047225 O    2038 MOH    -0.6497 ****
12535 HO1     4.192083   26.704827    0.141421 H    2038 MOH     0.4215 ****
12536 HC1     7.103660   28.995100    3.237135 H    2039 MOH     0.0372 ****
12537 C1      7.857679   28.241474    3.009446 C    2039 MOH     0.1166 ****
12538 HC2     7.371550   27.351901    2.609931 H    2039 MOH     0.0372 ****
12539 HC3     8.346695   27.952026    3.939292 H    2039 MOH     0.0372 ****
12540 O1      8.791832   28.783627    2.064752 O    2039 MOH    -0.6497 ****
12541 HO1     9.008338   29.681365    2.324260 H    2039 MOH     0.4215 ****
12542 HC1     3.040269   22.365556    0.502753 H    2040 MOH     0.0372 ****
12543 C1      2.633237   23.366173    0.357796 C    2040 MOH     0.1166 ****
12544 HC2     1.587656   23.320449    0.052326 H    2040 MOH     0.0372 ****
12545 HC3     3.189803   23.823819   -0.458912 H    2040 MOH     0.0372 ****
12546 O1      2.787967   24.190018    1.514623 O    2040 MOH    -0.6497 ****
12547 HO1     3.070868   25.070201    1.254407 H    2040 MOH     0.4215 ****
12548 HC1     2.446175   26.770963    2.725189 H    2041 MOH     0.0372 ****
12549 C1      2.534510   27.756883    3.181273 C    2041 MOH     0.1166 ****
12550 HC2     1.933488   27.788726    4.089198 H    2041 MOH     0.0372 ****
12551 HC3     2.182326   28.492138    2.457903 H    2041 MOH     0.0372 ****
12552 O1      3.874540   27.960599    3.488865 O    2041 MOH    -0.6497 ****
12553 HO1     4.359514   27.493971    2.805092 H    2041 MOH     0.4215 ****
12554 HC1     4.409744   21.933629    3.539069 H    2042 MOH     0.0372 ****
12555 C1      5.485924   21.941794    3.369364 C    2042 MOH     0.1166 ****
12556 HC2     5.906235   22.801973    3.889087 H    2042 MOH     0.0372 ****
12557 HC3     5.689729   22.002215    2.300218 H    2042 MOH     0.0372 ****
12558 O1      6.079441   20.797066    3.869995 O    2042 MOH    -0.6497 ****
12559 HO1     5.617560   20.535787    4.669026 H    2042 MOH     0.4215 ****
12560 HC1     0.225109   33.587077    0.408707 H    2043 MOH     0.0372 ****
12561 C1      1.256834   33.303344    0.202939 C    2043 MOH     0.1166 ****
12562 HC2     1.527611   32.477458    0.859842 H    2043 MOH     0.0372 ****
12563 HC3     1.905198   34.154134    0.413657 H    2043 MOH     0.0372 ****
12564 O1      1.394821   32.984094   -1.158948 O    2043 MOH    -0.6497 ****
12565 HO1     1.098062   33.776912   -1.611497 H    2043 MOH     0.4215 ****
12566 HC1     5.719174   32.859578   -5.277845 H    2044 MOH     0.0372 ****
12567 C1      5.733608   33.567073   -6.107281 C    2044 MOH     0.1166 ****
12568 HC2     4.742875   33.998183   -6.248703 H    2044 MOH     0.0372 ****
12569 HC3     6.072512   33.073909   -7.018035 H    2044 MOH     0.0372 ****
12570 O1      6.610603   34.618720   -5.800397 O    2044 MOH    -0.6497 ****
12571 HO1     6.806902   34.625660   -4.860652 H    2044 MOH     0.4215 ****
12572 HC1    11.850634   29.024902    8.051825 H    2045 MOH     0.0372 ****
12573 C1     11.925689   30.066752    7.742112 C    2045 MOH     0.1166 ****
12574 HC2    12.964342   30.291288    7.498867 H    2045 MOH     0.0372 ****
12575 HC3    11.563691   30.668102    8.577205 H    2045 MOH     0.0372 ****
12576 O1     11.037725   30.224336    6.665896 O    2045 MOH    -0.6497 ****
12577 HO1    11.404919   29.703819    5.948182 H    2045 MOH     0.4215 ****
12578 HC1     1.575531   25.112251    8.600540 H    2046 MOH     0.0372 ****
12579 C1      2.567996   25.133071    8.150113 C    2046 MOH     0.1166 ****
12580 HC2     3.091076   26.044281    8.440026 H    2046 MOH     0.0372 ****
12581 HC3     2.507952   25.077549    7.063997 H    2046 MOH     0.0372 ****
12582 O1      3.302963   24.068360    8.598418 O    2046 MOH    -0.6497 ****
12583 HO1     2.856094   23.272276    8.302848 H    2046 MOH     0.4215 ****
12584 HC1    -3.077912   29.403348   -7.493918 H    2047 MOH     0.0372 ****
12585 C1     -2.289829   29.437641   -8.246280 C    2047 MOH     0.1166 ****
12586 HC2    -2.710140   29.829151   -9.173296 H    2047 MOH     0.0372 ****
12587 HC3    -1.892034   28.439882   -8.432956 H    2047 MOH     0.0372 ****
12588 O1     -1.283507   30.337829   -7.896262 O    2047 MOH    -0.6497 ****
12589 HO1    -0.456164   29.872834   -8.039804 H    2047 MOH     0.4215 ****
12590 HC1     0.125805   28.782811  -10.212036 H    2048 MOH     0.0372 ****
12591 C1      0.555931   28.212896   -9.387550 C    2048 MOH     0.1166 ****
12592 HC2     1.331312   27.569089   -9.802621 H    2048 MOH     0.0372 ****
12593 HC3    -0.189429   27.564190   -8.927223 H    2048 MOH     0.0372 ****
12594 O1      1.125198   29.107368   -8.447805 O    2048 MOH    -0.6497 ****
12595 HO1     1.539736   28.568072   -7.771104 H    2048 MOH     0.4215 ****
12596 HC1    10.473076   37.498095   -7.926667 H    2049 MOH     0.0372 ****
12597 C1     11.216703   36.977171   -8.529122 C    2049 MOH     0.1166 ****
12598 HC2    12.132381   37.566681   -8.577205 H    2049 MOH     0.0372 ****
12599 HC3    10.880686   36.855921   -9.559377 H    2049 MOH     0.0372 ****
12600 O1     11.555031   35.748343   -7.945052 O    2049 MOH    -0.6497 ****
12601 HO1    10.851241   35.476858   -7.351789 H    2049 MOH     0.4215 ****
12602 HC1    11.188991   31.820995   -3.266833 H    2050 MOH     0.0372 ****
12603 C1     11.149731   30.751384   -3.471894 C    2050 MOH     0.1166 ****
12604 HC2    10.371463   30.323132   -2.840448 H    2050 MOH     0.0372 ****
12605 HC3    12.118524   30.314967   -3.227943 H    2050 MOH     0.0372 ****
12606 O1     10.861056   30.459487   -4.840146 O    2050 MOH    -0.6497 ****
12607 HO1    11.290604   29.645031   -5.112382 H    2050 MOH     0.4215 ****
12608 HC1    15.350531   30.501128   -5.513312 H    2051 MOH     0.0372 ****
12609 C1     14.828029   31.430301   -5.285623 C    2051 MOH     0.1166 ****
12610 HC2    13.795727   31.217195   -5.007023 H    2051 MOH     0.0372 ****
12611 HC3    14.868444   32.076558   -6.161729 H    2051 MOH     0.0372 ****
12612 O1     15.515653   31.993684   -4.219306 O    2051 MOH    -0.6497 ****
12613 HO1    15.978111   31.278433   -3.776657 H    2051 MOH     0.4215 ****
12614 HC1     8.750840   25.715233    4.126675 H    2052 MOH     0.0372 ****
12615 C1      9.001988   25.194717    5.050864 C    2052 MOH     0.1166 ****
12616 HC2     8.335148   24.341070    5.171779 H    2052 MOH     0.0372 ****
12617 HC3     8.879012   25.864652    5.901513 H    2052 MOH     0.0372 ****
12618 O1     10.342018   24.764015    4.953990 O    2052 MOH    -0.6497 ****
12619 HO1    10.531966   24.208389    5.712716 H    2052 MOH     0.4215 ****
12620 HC1    10.223661   32.645656   -5.894442 H    2053 MOH     0.0372 ****
12621 C1      9.286621   32.901628   -6.387296 C    2053 MOH     0.1166 ****
12622 HC2     8.448309   32.569722   -5.774234 H    2053 MOH     0.0372 ****
12623 HC3     9.268146   32.402748   -7.356032 H    2053 MOH     0.0372 ****
12624 O1      9.256022   34.285181   -6.604377 O    2053 MOH    -0.6497 ****
12625 HO1     8.339767   34.526456   -6.756405 H    2053 MOH     0.4215 ****
12626 HC1     0.277070   31.943469    3.347443 H    2054 MOH     0.0372 ****
12627 C1     -0.732715   32.342736    3.439367 C    2054 MOH     0.1166 ****
12628 HC2    -1.345284   31.601357    3.952727 H    2054 MOH     0.0372 ****
12629 HC3    -1.133974   32.534613    2.443761 H    2054 MOH     0.0372 ****
12630 O1     -0.664588   33.531555    4.201628 O    2054 MOH    -0.6497 ****
12631 HO1    -0.330302   34.224761    3.627458 H    2054 MOH     0.4215 ****
12632 HC1     6.894082   27.935696   -7.602105 H    2055 MOH     0.0372 ****
12633 C1      7.199500   26.955491   -7.969094 C    2055 MOH     0.1166 ****
12634 HC2     8.148664   27.035100   -8.498717 H    2055 MOH     0.0372 ****
12635 HC3     6.432779   26.563165   -8.635895 H    2055 MOH     0.0372 ****
12636 O1      7.353075   26.034892   -6.894998 O    2055 MOH    -0.6497 ****
12637 HO1     8.202358   25.600924   -7.003186 H    2055 MOH     0.4215 ****
12638 HC1    12.735135   25.287389   -0.929138 H    2056 MOH     0.0372 ****
12639 C1     13.606356   25.790759   -1.348453 C    2056 MOH     0.1166 ****
12640 HC2    13.308443   26.739936   -1.791809 H    2056 MOH     0.0372 ****
12641 HC3    14.045142   25.179203   -2.137584 H    2056 MOH     0.0372 ****
12642 O1     14.575150   26.065918   -0.362746 O    2056 MOH    -0.6497 ****
12643 HO1    15.005276   25.227785   -0.179605 H    2056 MOH     0.4215 ****
12644 HC1     2.707138   34.617087    8.032026 H    2057 MOH     0.0372 ****
12645 C1      3.315087   35.487881    7.783831 C    2057 MOH     0.1166 ****
12646 HC2     4.364710   35.218437    7.669280 H    2057 MOH     0.0372 ****
12647 HC3     3.258507   36.210072    8.599125 H    2057 MOH     0.0372 ****
12648 O1      2.920180   36.050039    6.573972 O    2057 MOH    -0.6497 ****
12649 HO1     3.201927   35.451547    5.878178 H    2057 MOH     0.4215 ****
12650 HC1     4.179958   31.611155  -12.677011 H    2058 MOH     0.0372 ****
12651 C1      5.103719   31.799357  -13.225018 C    2058 MOH     0.1166 ****
12652 HC2     5.694348   30.884473  -13.187542 H    2058 MOH     0.0372 ****
12653 HC3     5.626221   32.622794  -12.737822 H    2058 MOH     0.0372 ****
12654 O1      4.830632   32.151676  -14.579128 O    2058 MOH    -0.6497 ****
12655 HO1     5.612364   32.573804  -14.942581 H    2058 MOH     0.4215 ****
12656 HC1     1.766634   26.873025   -1.766353 H    2059 MOH     0.0372 ****
12657 C1      2.623422   26.615012   -2.390021 C    2059 MOH     0.1166 ****
12658 HC2     2.809329   27.408239   -3.113391 H    2059 MOH     0.0372 ****
12659 HC3     2.377471   25.711151   -2.947221 H    2059 MOH     0.0372 ****
12660 O1      3.786783   26.424360   -1.588869 O    2059 MOH    -0.6497 ****
12661 HO1     4.483067   26.076533   -2.150312 H    2059 MOH     0.4215 ****
12662 HC1     7.821306   26.532955   -2.583061 H    2060 MOH     0.0372 ****
12663 C1      7.323053   25.757283   -3.162889 C    2060 MOH     0.1166 ****
12664 HC2     8.049937   25.011821   -3.485329 H    2060 MOH     0.0372 ****
12665 HC3     6.860596   26.231259   -4.029095 H    2060 MOH     0.0372 ****
12666 O1      6.347908   25.126539   -2.365979 O    2060 MOH    -0.6497 ****
12667 HO1     6.819604   24.757483   -1.616446 H    2060 MOH     0.4215 ****
12668 HC1    11.161855   32.584827    4.603972 H    2061 MOH     0.0372 ****
12669 C1     10.539471   33.479299    4.594780 C    2061 MOH     0.1166 ****
12670 HC2    10.983454   34.266402    5.204306 H    2061 MOH     0.0372 ****
12671 HC3     9.567791   33.201282    5.004195 H    2061 MOH     0.0372 ****
12672 O1     10.359915   33.932047    3.273197 O    2061 MOH    -0.6497 ****
12673 HO1    11.217281   34.207614    2.940150 H    2061 MOH     0.4215 ****
12674 HC1     6.790736   32.764456    2.444468 H    2062 MOH     0.0372 ****
12675 C1      7.244533   33.643823    2.901259 C    2062 MOH     0.1166 ****
12676 HC2     8.081691   33.960624    2.279005 H    2062 MOH     0.0372 ****
12677 HC3     7.548220   33.394792    3.918079 H    2062 MOH     0.0372 ****
12678 O1      6.294215   34.641582    2.865904 O    2062 MOH    -0.6497 ****
12679 HO1     5.966280   34.697104    1.965050 H    2062 MOH     0.4215 ****
12680 HC1    10.413032   28.824044    4.287188 H    2063 MOH     0.0372 ****
12681 C1     11.235756   28.133288    4.101926 C    2063 MOH     0.1166 ****
12682 HC2    11.511152   28.254538    3.054701 H    2063 MOH     0.0372 ****
12683 HC3    10.927451   27.093479    4.208699 H    2063 MOH     0.0372 ****
12684 O1     12.325793   28.443965    4.986517 O    2063 MOH    -0.6497 ****
12685 HO1    12.936630   27.703402    4.999245 H    2063 MOH     0.4215 ****
12686 HC1     6.160270   30.165548   -4.908028 H    2064 MOH     0.0372 ****
12687 C1      7.087494   29.988776   -4.364263 C    2064 MOH     0.1166 ****
12688 HC2     7.021676   29.064094   -3.790800 H    2064 MOH     0.0372 ****
12689 HC3     7.310929   30.825277   -3.701704 H    2064 MOH     0.0372 ****
12690 O1      8.090929   29.886714   -5.294816 O    2064 MOH    -0.6497 ****
12691 HO1     8.900951   30.227602   -4.908028 H    2064 MOH     0.4215 ****
12692 HC1     4.063334   30.309659  -10.180924 H    2065 MOH     0.0372 ****
12693 C1      4.343348   29.401307   -9.647058 C    2065 MOH     0.1166 ****
12694 HC2     5.151639   28.905694  -10.184459 H    2065 MOH     0.0372 ****
12695 HC3     3.512541   28.695446   -9.623723 H    2065 MOH     0.0372 ****
12696 O1      4.780980   29.662586   -8.327597 O    2065 MOH    -0.6497 ****
12697 HO1     4.433415   28.957949   -7.776053 H    2065 MOH     0.4215 ****
12698 HC1    15.247185   29.781794    3.222286 H    2066 MOH     0.0372 ****
12699 C1     14.415801   30.465202    3.052580 C    2066 MOH     0.1166 ****
12700 HC2    13.493773   30.005106    3.409669 H    2066 MOH     0.0372 ****
12701 HC3    14.345364   30.653405    1.981313 H    2066 MOH     0.0372 ****
12702 O1     14.743736   31.685864    3.704532 O    2066 MOH    -0.6497 ****
12703 HO1    15.356882   31.488681    4.416589 H    2066 MOH     0.4215 ****
12704 HC1     7.753756   32.011238   11.705446 H    2067 MOH     0.0372 ****
12705 C1      6.862327   32.637900   11.673626 C    2067 MOH     0.1166 ****
12706 HC2     5.973785   32.007156   11.633321 H    2067 MOH     0.0372 ****
12707 HC3     6.871565   33.255987   10.775600 H    2067 MOH     0.0372 ****
12708 O1      6.872720   33.485423   12.795097 O    2067 MOH    -0.6497 ****
12709 HO1     7.628471   34.065544   12.678424 H    2067 MOH     0.4215 ****
12710 HC1    15.007008   32.608097   -0.755190 H    2068 MOH     0.0372 ****
12711 C1     13.997222   32.287214   -1.011163 C    2068 MOH     0.1166 ****
12712 HC2    13.299783   32.717916   -0.292035 H    2068 MOH     0.0372 ****
12713 HC3    13.915816   31.200865   -0.976515 H    2068 MOH     0.0372 ****
12714 O1     13.642152   32.746494   -2.283248 O    2068 MOH    -0.6497 ****
12715 HO1    14.240864   32.339062   -2.912573 H    2068 MOH     0.4215 ****
12716 HC1     9.410752   33.273134   10.291939 H    2069 MOH     0.0372 ****
12717 C1      9.635341   34.339070   10.342144 C    2069 MOH     0.1166 ****
12718 HC2     9.276229   34.886939    9.470988 H    2069 MOH     0.0372 ****
12719 HC3    10.721337   34.385610   10.270019 H    2069 MOH     0.0372 ****
12720 O1      9.274497   34.937154   11.608572 O    2069 MOH    -0.6497 ****
12721 HO1     9.202328   35.885923   11.482707 H    2069 MOH     0.4215 ****
12722 HC1     8.497384   19.822169    1.659580 H    2070 MOH     0.0372 ****
12723 C1      9.078775   20.579470    2.186374 C    2070 MOH     0.1166 ****
12724 HC2    10.132439   20.335337    2.049195 H    2070 MOH     0.0372 ****
12725 HC3     8.848990   20.590084    3.251277 H    2070 MOH     0.0372 ****
12726 O1      8.950603   21.839732    1.634124 O    2070 MOH    -0.6497 ****
12727 HO1     9.749079   22.316158    1.875247 H    2070 MOH     0.4215 ****
12728 HC1     3.652837   31.179228    6.741556 H    2071 MOH     0.0372 ****
12729 C1      3.998093   30.336196    6.144051 C    2071 MOH     0.1166 ****
12730 HC2     4.738256   29.804248    6.742970 H    2071 MOH     0.0372 ****
12731 HC3     4.439766   30.721990    5.225519 H    2071 MOH     0.0372 ****
12732 O1      2.945583   29.418453    5.810296 O    2071 MOH    -0.6497 ****
12733 HO1     3.224443   28.905285    5.048742 H    2071 MOH     0.4215 ****
12734 HC1     8.717931   19.499653   -3.003083 H    2072 MOH     0.0372 ****
12735 C1      8.685022   20.584777   -3.102078 C    2072 MOH     0.1166 ****
12736 HC2     9.130159   21.053854   -2.224558 H    2072 MOH     0.0372 ****
12737 HC3     7.647524   20.910559   -3.177031 H    2072 MOH     0.0372 ****
12738 O1      9.370915   20.961998   -4.267389 O    2072 MOH    -0.6497 ****
12739 HO1     9.472528   21.915258   -4.227084 H    2072 MOH     0.4215 ****
12740 HC1    17.151287   28.316591   -1.820093 H    2073 MOH     0.0372 ****
12741 C1     16.245424   28.641149   -2.331331 C    2073 MOH     0.1166 ****
12742 HC2    15.359769   28.248414   -1.832114 H    2073 MOH     0.0372 ****
12743 HC3    16.252930   28.292913   -3.364414 H    2073 MOH     0.0372 ****
12744 O1     16.152471   30.033275   -2.317189 O    2073 MOH    -0.6497 ****
12745 HO1    16.422671   30.318641   -1.441084 H    2073 MOH     0.4215 ****
12746 HC1     9.685570   32.880399    0.164756 H    2074 MOH     0.0372 ****
12747 C1     10.348946   32.058595    0.434163 C    2074 MOH     0.1166 ****
12748 HC2    11.365082   32.444798    0.511945 H    2074 MOH     0.0372 ****
12749 HC3    10.335089   31.275983   -0.324562 H    2074 MOH     0.0372 ****
12750 O1      9.970781   31.631567    1.721098 O    2074 MOH    -0.6497 ****
12751 HO1    10.024475   32.400707    2.292440 H    2074 MOH     0.4215 ****
12752 HC1     4.171875   31.843448   -4.712867 H    2075 MOH     0.0372 ****
12753 C1      3.541409   31.529914   -3.881309 C    2075 MOH     0.1166 ****
12754 HC2     2.565110   31.217195   -4.251833 H    2075 MOH     0.0372 ****
12755 HC3     3.371091   32.357025   -3.191173 H    2075 MOH     0.0372 ****
12756 O1      4.143585   30.475817   -3.185516 O    2075 MOH    -0.6497 ****
12757 HO1     3.492911   30.121457   -2.575990 H    2075 MOH     0.4215 ****
12758 HC1     6.834037   36.575862   -1.569070 H    2076 MOH     0.0372 ****
12759 C1      7.490485   36.851430   -0.743877 C    2076 MOH     0.1166 ****
12760 HC2     6.943734   36.815504    0.199404 H    2076 MOH     0.0372 ****
12761 HC3     7.836895   37.874092   -0.894490 H    2076 MOH     0.0372 ****
12762 O1      8.609389   35.979412   -0.678823 O    2076 MOH    -0.6497 ****
12763 HO1     9.214453   36.306010   -0.008485 H    2076 MOH     0.4215 ****
12764 HC1    -3.827890   26.508051   -1.516037 H    2077 MOH     0.0372 ****
12765 C1     -3.184144   27.292296   -1.912724 C    2077 MOH     0.1166 ****
12766 HC2    -3.150081   28.093688   -1.175212 H    2077 MOH     0.0372 ****
12767 HC3    -3.583093   27.732388   -2.827720 H    2077 MOH     0.0372 ****
12768 O1     -1.872405   26.827710   -2.143241 O    2077 MOH    -0.6497 ****
12769 HO1    -1.430154   27.614812   -2.468510 H    2077 MOH     0.4215 ****
12770 HC1     2.942119   33.648722    2.662257 H    2078 MOH     0.0372 ****
12771 C1      3.104932   33.424594    3.716553 C    2078 MOH     0.1166 ****
12772 HC2     3.672467   32.497870    3.808477 H    2078 MOH     0.0372 ****
12773 HC3     2.121127   33.307018    4.170516 H    2078 MOH     0.0372 ****
12774 O1      3.797752   34.501145    4.308401 O    2078 MOH    -0.6497 ****
12775 HO1     4.636065   34.591776    3.850196 H    2078 MOH     0.4215 ****
12776 HC1     0.877515   27.582561    7.421793 H    2079 MOH     0.0372 ****
12777 C1      0.484339   28.017345    8.340324 C    2079 MOH     0.1166 ****
12778 HC2     0.300164   29.082057    8.198903 H    2079 MOH     0.0372 ****
12779 HC3     1.183510   27.873234    9.164104 H    2079 MOH     0.0372 ****
12780 O1     -0.680176   27.356391    8.669129 O    2079 MOH    -0.6497 ****
12781 HO1    -1.104529   27.805873    9.403813 H    2079 MOH     0.4215 ****
12782 HC1     2.664414   33.543802   -6.673674 H    2080 MOH     0.0372 ****
12783 C1      2.531046   32.521140   -7.026520 C    2080 MOH     0.1166 ****
12784 HC2     1.532230   32.443573   -7.455027 H    2080 MOH     0.0372 ****
12785 HC3     2.604369   31.804256   -6.209105 H    2080 MOH     0.0372 ****
12786 O1      3.451342   32.243940   -8.038390 O    2080 MOH    -0.6497 ****
12787 HO1     3.567390   31.295987   -8.130314 H    2080 MOH     0.4215 ****
12788 HC1     4.851417   24.269218   -7.715949 H    2081 MOH     0.0372 ****
12789 C1      4.114718   24.615004   -6.991165 C    2081 MOH     0.1166 ****
12790 HC2     3.843940   23.807081   -6.310221 H    2081 MOH     0.0372 ****
12791 HC3     3.205968   24.914658   -7.511595 H    2081 MOH     0.0372 ****
12792 O1      4.554659   25.696454   -6.197084 O    2081 MOH    -0.6497 ****
12793 HO1     5.502090   25.627868   -6.061319 H    2081 MOH     0.4215 ****
12794 HC1     3.688633   22.018545   -1.953736 H    2082 MOH     0.0372 ****
12795 C1      4.723822   22.322690   -2.110007 C    2082 MOH     0.1166 ****
12796 HC2     5.312719   21.420053   -2.277591 H    2082 MOH     0.0372 ****
12797 HC3     5.096790   22.879541   -1.251579 H    2082 MOH     0.0372 ****
12798 O1      4.721513   23.054271   -3.286632 O    2082 MOH    -0.6497 ****
12799 HO1     5.358907   23.763398   -3.177031 H    2082 MOH     0.4215 ****
12800 HC1    16.751183   27.210647    2.617002 H    2083 MOH     0.0372 ****
12801 C1     17.135121   27.807506    1.789687 C    2083 MOH     0.1166 ****
12802 HC2    17.822745   27.190234    1.211274 H    2083 MOH     0.0372 ****
12803 HC3    17.636261   28.669318    2.231629 H    2083 MOH     0.0372 ****
12804 O1     16.069910   28.247189    1.002677 O    2083 MOH    -0.6497 ****
12805 HO1    15.540479   27.491113    0.741048 H    2083 MOH     0.4215 ****
12806 HC1     7.217398   36.206806    7.217439 H    2084 MOH     0.0372 ****
12807 C1      7.280906   35.283757    6.641147 C    2084 MOH     0.1166 ****
12808 HC2     8.312631   35.079633    6.355476 H    2084 MOH     0.0372 ****
12809 HC3     6.663719   35.395617    5.750192 H    2084 MOH     0.0372 ****
12810 O1      6.763023   34.230476    7.406236 O    2084 MOH    -0.6497 ****
12811 HO1     7.013016   33.405815    6.981972 H    2084 MOH     0.4215 ****
12812 HC1    16.643218   32.667293    1.352695 H    2085 MOH     0.0372 ****
12813 C1     17.283500   31.792009    1.461590 C    2085 MOH     0.1166 ****
12814 HC2    17.133389   31.391109    2.464267 H    2085 MOH     0.0372 ****
12815 HC3    18.322153   32.104727    1.355524 H    2085 MOH     0.0372 ****
12816 O1     16.904181   30.850180    0.458205 O    2085 MOH    -0.6497 ****
12817 HO1    16.833167   29.976937    0.850649 H    2085 MOH     0.4215 ****
12818 HC1     8.803957   33.949601   -9.564326 H    2086 MOH     0.0372 ****
12819 C1      7.879619   34.464811   -9.825956 C    2086 MOH     0.1166 ****
12820 HC2     7.166591   34.417862   -9.002177 H    2086 MOH     0.0372 ****
12821 HC3     7.443719   34.018595  -10.719032 H    2086 MOH     0.0372 ****
12822 O1      8.117487   35.814071  -10.105263 O    2086 MOH    -0.6497 ****
12823 HO1     8.622091   35.844281  -10.921264 H    2086 MOH     0.4215 ****
12824 HC1     0.409861   28.088381   12.639534 H    2087 MOH     0.0372 ****
12825 C1      1.304176   27.645839   13.079354 C    2087 MOH     0.1166 ****
12826 HC2     1.369994   27.918958   14.132236 H    2087 MOH     0.0372 ****
12827 HC3     2.194451   28.015712   12.570237 H    2087 MOH     0.0372 ****
12828 O1      1.252792   26.233300   12.963388 O    2087 MOH    -0.6497 ****
12829 HO1     2.158077   25.925073   13.051777 H    2087 MOH     0.4215 ****
12830 HC1    -0.936520   23.729922   -9.024804 H    2088 MOH     0.0372 ****
12831 C1     -0.422678   24.038966   -8.114758 C    2088 MOH     0.1166 ****
12832 HC2     0.660431   24.012838   -8.230723 H    2088 MOH     0.0372 ****
12833 HC3    -0.725787   23.399649   -7.284614 H    2088 MOH     0.0372 ****
12834 O1     -0.862042   25.296370   -7.831915 O    2088 MOH    -0.6497 ****
12835 HO1    -1.194018   25.658487   -8.657109 H    2088 MOH     0.4215 ****
12836 HC1     4.140698   31.831201   10.441846 H    2089 MOH     0.0372 ****
12837 C1      3.730202   30.874675   10.764993 C    2089 MOH     0.1166 ****
12838 HC2     4.509048   30.112067   10.786207 H    2089 MOH     0.0372 ****
12839 HC3     2.945006   30.595842   10.062836 H    2089 MOH     0.0372 ****
12840 O1      3.134377   31.019195   12.020815 O    2089 MOH    -0.6497 ****
12841 HO1     3.755028   31.468268   12.599228 H    2089 MOH     0.4215 ****
12842 HC1     0.915042   26.938753   -5.291280 H    2090 MOH     0.0372 ****
12843 C1      0.032851   27.522140   -5.030358 C    2090 MOH     0.1166 ****
12844 HC2     0.337115   28.520715   -4.719231 H    2090 MOH     0.0372 ****
12845 HC3    -0.502352   27.032242   -4.217185 H    2090 MOH     0.0372 ****
12846 O1     -0.788141   27.577254   -6.197791 O    2090 MOH    -0.6497 ****
12847 HO1    -0.878785   26.688497   -6.550637 H    2090 MOH     0.4215 ****
12848 HC1     8.451773   17.946268    0.159806 H    2091 MOH     0.0372 ****
12849 C1      9.289508   18.174479   -0.499925 C    2091 MOH     0.1166 ****
12850 HC2     9.646888   19.175912   -0.264458 H    2091 MOH     0.0372 ****
12851 HC3     8.939056   18.129572   -1.530886 H    2091 MOH     0.0372 ****
12852 O1     10.370308   17.232650   -0.295571 O    2091 MOH    -0.6497 ****
12853 HO1    11.203424   17.620894   -0.573464 H    2091 MOH     0.4215 ****
12854 HC1     2.645361   28.801590   -0.224860 H    2092 MOH     0.0372 ****
12855 C1      2.333592   29.845073   -0.260215 C    2092 MOH     0.1166 ****
12856 HC2     3.139573   30.502353    0.067882 H    2092 MOH     0.0372 ****
12857 HC3     1.490661   29.968364    0.418607 H    2092 MOH     0.0372 ****
12858 O1      1.880372   30.191267   -1.554221 O    2092 MOH    -0.6497 ****
12859 HO1     1.669062   31.126973   -1.524522 H    2092 MOH     0.4215 ****
12860 HC1     9.341470   36.815096    7.272593 H    2093 MOH     0.0372 ****
12861 C1     10.266962   37.114750    7.766154 C    2093 MOH     0.1166 ****
12862 HC2    10.710944   36.260695    8.278099 H    2093 MOH     0.0372 ****
12863 HC3    10.021011   37.866744    8.515687 H    2093 MOH     0.0372 ****
12864 O1     11.149153   37.614038    6.740142 O    2093 MOH    -0.6497 ****
12865 HO1    10.958628   38.552193    6.665188 H    2093 MOH     0.4215 ****
12866 HC1    -1.629340   27.972438    0.591848 H    2094 MOH     0.0372 ****
12867 C1     -0.858000   27.679316    1.304612 C    2094 MOH     0.1166 ****
12868 HC2     0.039779   27.422936    0.741755 H    2094 MOH     0.0372 ****
12869 HC3    -1.188245   26.790967    1.843427 H    2094 MOH     0.0372 ****
12870 O1     -0.597615   28.756683    2.213244 O    2094 MOH    -0.6497 ****
12871 HO1    -1.263878   28.731780    2.904087 H    2094 MOH     0.4215 ****
12872 HC1    -1.758667   28.583178    6.474977 H    2095 MOH     0.0372 ****
12873 C1     -1.275425   28.432534    5.509776 C    2095 MOH     0.1166 ****
12874 HC2    -0.819895   27.442940    5.489977 H    2095 MOH     0.0372 ****
12875 HC3    -0.515054   29.201674    5.371183 H    2095 MOH     0.0372 ****
12876 O1     -2.306572   28.481932    4.523362 O    2095 MOH    -0.6497 ****
12877 HO1    -2.819259   29.282915    4.653470 H    2095 MOH     0.4215 ****
12878 HC1    -6.058771   30.010822    0.141421 H    2096 MOH     0.0372 ****
12879 C1     -5.471029   30.926523    0.202939 C    2096 MOH     0.1166 ****
12880 HC2    -5.005107   31.137179   -0.760140 H    2096 MOH     0.0372 ****
12881 HC3    -4.682368   30.777920    0.939745 H    2096 MOH     0.0372 ****
12882 O1     -6.252761   32.051247    0.578413 O    2096 MOH    -0.6497 ****
12883 HO1    -6.652865   31.887131    1.435426 H    2096 MOH     0.4215 ****
12884 HC1     7.676391   32.618304   -2.308704 H    2097 MOH     0.0372 ****
12885 C1      8.458124   33.291505   -2.660136 C    2097 MOH     0.1166 ****
12886 HC2     9.017576   32.856721   -3.488158 H    2097 MOH     0.0372 ****
12887 HC3     9.143438   33.496446   -1.838478 H    2097 MOH     0.0372 ****
12888 O1      7.884238   34.490938   -3.105613 O    2097 MOH    -0.6497 ****
12889 HO1     8.079382   35.134338   -2.419720 H    2097 MOH     0.4215 ****
12890 HC1   -22.218574  -18.451761  -16.242101 H    2098 MOH     0.0372 ****
12891 C1    -23.254918  -18.312957  -15.935217 C    2098 MOH     0.1166 ****
12892 HC2   -23.818412  -17.948800  -16.793645 H    2098 MOH     0.0372 ****
12893 HC3   -23.324778  -17.563005  -15.146793 H    2098 MOH     0.0372 ****
12894 O1    -23.780307  -19.555665  -15.518024 O    2098 MOH    -0.6497 ****
12895 HO1   -24.542987  -19.403388  -14.955874 H    2098 MOH     0.4215 ****
12896 HC1   -15.610801  -27.753699   -7.644390 H    2099 MOH     0.0372 ****
12897 C1    -15.549602  -26.973944   -6.886371 C    2099 MOH     0.1166 ****
12898 HC2   -15.189335  -27.419752   -5.958647 H    2099 MOH     0.0372 ****
12899 HC3   -16.542644  -26.548550   -6.740708 H    2099 MOH     0.0372 ****
12900 O1    -14.678380  -25.951282   -7.314171 O    2099 MOH    -0.6497 ****
12901 HO1   -13.791570  -26.311357   -7.380639 H    2099 MOH     0.4215 ****
12902 HC1    -9.352324  -23.004546  -13.424988 H    2100 MOH     0.0372 ****
12903 C1     -8.918734  -22.811445  -12.444231 C    2100 MOH     0.1166 ****
12904 HC2    -8.632945  -21.760614  -12.393319 H    2100 MOH     0.0372 ****
12905 HC3    -8.030769  -23.430758  -12.317659 H    2100 MOH     0.0372 ****
12906 O1     -9.873094  -23.126204  -11.436604 O    2100 MOH    -0.6497 ****
12907 HO1    -9.672176  -24.017819  -11.143861 H    2100 MOH     0.4215 ****
12908 HC1   -13.359135  -33.386300  -14.420594 H    2101 MOH     0.0372 ****
12909 C1    -14.207839  -32.951516  -13.892385 C    2101 MOH     0.1166 ****
12910 HC2   -14.344094  -31.924363  -14.230382 H    2101 MOH     0.0372 ****
12911 HC3   -14.043295  -32.963763  -12.814755 H    2101 MOH     0.0372 ****
12912 O1    -15.373510  -33.649620  -14.226140 O    2101 MOH    -0.6497 ****
12913 HO1   -15.346374  -34.450195  -13.696517 H    2101 MOH     0.4215 ****
12914 HC1    -5.282582  -24.615902  -18.040274 H    2102 MOH     0.0372 ****
12915 C1     -5.477149  -23.874523  -17.265285 C    2102 MOH     0.1166 ****
12916 HC2    -6.541205  -23.832474  -17.032647 H    2102 MOH     0.0372 ****
12917 HC3    -5.175772  -22.886154  -17.612474 H    2102 MOH     0.0372 ****
12918 O1     -4.807422  -24.204796  -16.054011 O    2102 MOH    -0.6497 ****
12919 HO1    -5.025083  -25.099268  -15.781775 H    2102 MOH     0.4215 ****
12920 HC1   -21.168952  -19.903084  -11.573075 H    2103 MOH     0.0372 ****
12921 C1    -20.565043  -19.351541  -10.852534 C    2103 MOH     0.1166 ****
12922 HC2   -19.753289  -19.986775  -10.498980 H    2103 MOH     0.0372 ****
12923 HC3   -21.213408  -19.065767  -10.023804 H    2103 MOH     0.0372 ****
12924 O1    -20.060439  -18.227633  -11.508022 O    2103 MOH    -0.6497 ****
12925 HO1   -19.247530  -17.965946  -11.068908 H    2103 MOH     0.4215 ****
12926 HC1   -23.107117  -25.224600   -7.188306 H    2104 MOH     0.0372 ****
12927 C1    -24.127294  -25.517314   -6.940112 C    2104 MOH     0.1166 ****
12928 HC2   -24.288375  -25.459751   -5.864602 H    2104 MOH     0.0372 ****
12929 HC3   -24.335718  -26.539568   -7.256896 H    2104 MOH     0.0372 ****
12930 O1    -25.013527  -24.624884   -7.541152 O    2104 MOH    -0.6497 ****
12931 HO1   -24.562039  -24.248479   -8.300585 H    2104 MOH     0.4215 ****
12932 HC1   -10.399637  -20.251728  -16.511509 H    2105 MOH     0.0372 ****
12933 C1    -10.351140  -21.339302  -16.562421 C    2105 MOH     0.1166 ****
12934 HC2   -10.729304  -21.694069  -17.520550 H    2105 MOH     0.0372 ****
12935 HC3   -10.957935  -21.785925  -15.774704 H    2105 MOH     0.0372 ****
12936 O1     -9.014574  -21.773678  -16.488882 O    2105 MOH    -0.6497 ****
12937 HO1    -9.046905  -22.733061  -16.467668 H    2105 MOH     0.4215 ****
12938 HC1   -28.508228  -22.437898  -10.984055 H    2106 MOH     0.0372 ****
12939 C1    -27.467843  -22.410545  -11.310032 C    2106 MOH     0.1166 ****
12940 HC2   -26.883565  -23.050270  -10.647473 H    2106 MOH     0.0372 ****
12941 HC3   -27.126629  -21.376860  -11.256292 H    2106 MOH     0.0372 ****
12942 O1    -27.400870  -22.892686  -12.633028 O    2106 MOH    -0.6497 ****
12943 HO1   -27.995541  -23.645496  -12.676869 H    2106 MOH     0.4215 ****
12944 HC1    -5.603588  -22.586092  -14.258667 H    2107 MOH     0.0372 ****
12945 C1     -5.521027  -21.646304  -13.712780 C    2107 MOH     0.1166 ****
12946 HC2    -6.347793  -20.990657  -13.985724 H    2107 MOH     0.0372 ****
12947 HC3    -4.563781  -21.184167  -13.957439 H    2107 MOH     0.0372 ****
12948 O1     -5.562019  -22.004338  -12.371399 O    2107 MOH    -0.6497 ****
12949 HO1    -5.338007  -21.261326  -11.807128 H    2107 MOH     0.4215 ****
12950 HC1   -17.696190  -17.961863  -14.515347 H    2108 MOH     0.0372 ****
12951 C1    -18.361875  -17.102909  -14.430494 C    2108 MOH     0.1166 ****
12952 HC2   -19.403992  -17.422976  -14.437565 H    2108 MOH     0.0372 ****
12953 HC3   -18.226775  -16.478289  -15.312963 H    2108 MOH     0.0372 ****
12954 O1    -18.136131  -16.306008  -13.226998 O    2108 MOH    -0.6497 ****
12955 HO1   -18.208877  -16.873065  -12.456959 H    2108 MOH     0.4215 ****
12956 HC1   -17.621712  -28.615919   -5.565496 H    2109 MOH     0.0372 ****
12957 C1    -17.322067  -29.663076   -5.580345 C    2109 MOH     0.1166 ****
12958 HC2   -16.688136  -29.851687   -6.447258 H    2109 MOH     0.0372 ****
12959 HC3   -18.189824  -30.317090   -5.659541 H    2109 MOH     0.0372 ****
12960 O1    -16.617122  -29.974161   -4.386749 O    2109 MOH    -0.6497 ****
12961 HO1   -16.182955  -30.822501   -4.505543 H    2109 MOH     0.4215 ****
12962 HC1   -20.755569  -13.707916  -11.781672 H    2110 MOH     0.0372 ****
12963 C1    -21.209944  -13.409895  -12.726367 C    2110 MOH     0.1166 ****
12964 HC2   -22.290743  -13.544617  -12.678283 H    2110 MOH     0.0372 ****
12965 HC3   -20.787323  -14.034515  -13.514083 H    2110 MOH     0.0372 ****
12966 O1    -20.928197  -12.052469  -12.985875 O    2110 MOH    -0.6497 ****
12967 HO1   -21.197819  -11.858143  -13.886729 H    2110 MOH     0.4215 ****
12968 HC1   -19.714606  -10.794248   -8.658381 H    2111 MOH     0.0372 ****
12969 C1    -20.056398  -11.463775   -9.447512 C    2111 MOH     0.1166 ****
12970 HC2   -20.554651  -12.339876   -9.031734 H    2111 MOH     0.0372 ****
12971 HC3   -19.184021  -11.781801  -10.018148 H    2111 MOH     0.0372 ****
12972 O1    -20.837553  -10.733827  -10.369580 O    2111 MOH    -0.6497 ****
12973 HO1   -20.810417  -11.220868  -11.196187 H    2111 MOH     0.4215 ****
12974 HC1   -16.947944  -27.500176  -12.989410 H    2112 MOH     0.0372 ****
12975 C1    -17.088240  -27.654494  -14.058556 C    2112 MOH     0.1166 ****
12976 HC2   -17.284539  -26.700010  -14.547873 H    2112 MOH     0.0372 ****
12977 HC3   -17.922511  -28.333411  -14.234625 H    2112 MOH     0.0372 ****
12978 O1    -15.912755  -28.208896  -14.610099 O    2112 MOH    -0.6497 ****
12979 HO1   -15.266122  -28.309733  -13.907942 H    2112 MOH     0.4215 ****
12980 HC1   -14.184745  -19.463809  -11.698940 H    2113 MOH     0.0372 ****
12981 C1    -13.702081  -20.429724  -11.846018 C    2113 MOH     0.1166 ****
12982 HC2   -14.475153  -21.183759  -11.993804 H    2113 MOH     0.0372 ****
12983 HC3   -13.137432  -20.672224  -10.946579 H    2113 MOH     0.0372 ****
12984 O1    -12.793909  -20.401963  -12.968904 O    2113 MOH    -0.6497 ****
12985 HO1   -12.082613  -19.797756  -12.739801 H    2113 MOH     0.4215 ****
12986 HC1   -10.486240  -33.589200  -12.744044 H    2114 MOH     0.0372 ****
12987 C1    -10.652517  -33.502243  -11.669949 C    2114 MOH     0.1166 ****
12988 HC2   -10.580348  -32.446105  -11.410441 H    2114 MOH     0.0372 ****
12989 HC3    -9.865588  -34.056236  -11.157296 H    2114 MOH     0.0372 ****
12990 O1    -11.978113  -34.021126  -11.435896 O    2114 MOH    -0.6497 ****
12991 HO1   -12.289305  -33.672482  -10.597268 H    2114 MOH     0.4215 ****
12992 HC1   -11.620156  -16.192107   -3.562970 H    2115 MOH     0.0372 ****
12993 C1    -12.331451  -17.017993   -3.573576 C    2115 MOH     0.1166 ****
12994 HC2   -11.969453  -17.749166   -4.296946 H    2115 MOH     0.0372 ****
12995 HC3   -13.320452  -16.645671   -3.843691 H    2115 MOH     0.0372 ****
12996 O1    -12.394960  -17.591582   -2.288763 O    2115 MOH    -0.6497 ****
12997 HO1   -12.670933  -16.907766   -1.674287 H    2115 MOH     0.4215 ****
12998 HC1   -15.690475  -14.662401  -20.571009 H    2116 MOH     0.0372 ****
12999 C1    -16.271289  -14.281097  -19.730966 C    2116 MOH     0.1166 ****
13000 HC2   -15.973954  -13.273948  -19.438931 H    2116 MOH     0.0372 ****
13001 HC3   -16.063443  -14.936335  -18.884559 H    2116 MOH     0.0372 ****
13002 O1    -17.650579  -14.324779  -20.015930 O    2116 MOH    -0.6497 ****
13003 HO1   -18.055879  -14.999614  -19.466508 H    2116 MOH     0.4215 ****
13004 HC1   -27.112773  -25.019252   -9.545093 H    2117 MOH     0.0372 ****
13005 C1    -27.504216  -25.788391  -10.209773 C    2117 MOH     0.1166 ****
13006 HC2   -27.004808  -25.754507  -11.177803 H    2117 MOH     0.0372 ****
13007 HC3   -28.575778  -25.625909  -10.334224 H    2117 MOH     0.0372 ****
13008 O1    -27.363343  -27.055186   -9.624996 O    2117 MOH    -0.6497 ****
13009 HO1   -27.809634  -27.055594   -8.775761 H    2117 MOH     0.4215 ****
13010 HC1   -10.892694  -27.451187  -13.925619 H    2118 MOH     0.0372 ****
13011 C1    -10.909437  -28.458335  -14.343520 C    2118 MOH     0.1166 ****
13012 HC2   -10.407720  -29.116840  -13.635706 H    2118 MOH     0.0372 ****
13013 HC3   -10.358068  -28.486913  -15.283972 H    2118 MOH     0.0372 ****
13014 O1    -12.252354  -28.893936  -14.492719 O    2118 MOH    -0.6497 ****
13015 HO1   -12.744257  -28.633065  -13.709952 H    2118 MOH     0.4215 ****
13016 HC1   -16.757996  -23.660193  -14.793947 H    2119 MOH     0.0372 ****
13017 C1    -17.821475  -23.459335  -14.925469 C    2119 MOH     0.1166 ****
13018 HC2   -18.403444  -24.380343  -14.898598 H    2119 MOH     0.0372 ****
13019 HC3   -17.986597  -22.988625  -15.894912 H    2119 MOH     0.0372 ****
13020 O1    -18.271808  -22.568945  -13.946126 O    2119 MOH    -0.6497 ****
13021 HO1   -18.161534  -21.674473  -14.276345 H    2119 MOH     0.4215 ****
13022 HC1   -13.045056  -20.732645  -17.590554 H    2120 MOH     0.0372 ****
13023 C1    -13.449201  -20.386858  -18.541613 C    2120 MOH     0.1166 ****
13024 HC2   -14.382199  -20.910233  -18.753745 H    2120 MOH     0.0372 ****
13025 HC3   -12.728091  -20.531786  -19.345593 H    2120 MOH     0.0372 ****
13026 O1    -13.695730  -19.020860  -18.387463 O    2120 MOH    -0.6497 ****
13027 HO1   -12.871274  -18.565254  -18.199373 H    2120 MOH     0.4215 ****
13028 HC1   -17.277611  -31.988458  -12.386955 H    2121 MOH     0.0372 ****
13029 C1    -17.463518  -31.402622  -13.287102 C    2121 MOH     0.1166 ****
13030 HC2   -17.445620  -32.026425  -14.180885 H    2121 MOH     0.0372 ****
13031 HC3   -16.715849  -30.617152  -13.395997 H    2121 MOH     0.0372 ****
13032 O1    -18.705975  -30.814336  -13.157702 O    2121 MOH    -0.6497 ****
13033 HO1   -19.004465  -30.703701  -14.063505 H    2121 MOH     0.4215 ****
13034 HC1   -16.092888  -28.413428  -10.967792 H    2122 MOH     0.0372 ****
13035 C1    -15.338869  -29.167054  -11.195480 C    2122 MOH     0.1166 ****
13036 HC2   -15.824998  -30.056627  -11.594996 H    2122 MOH     0.0372 ****
13037 HC3   -14.849853  -29.456502  -10.265635 H    2122 MOH     0.0372 ****
13038 O1    -14.404716  -28.624901  -12.140175 O    2122 MOH    -0.6497 ****
13039 HO1   -14.188210  -27.727163  -11.880667 H    2122 MOH     0.4215 ****
13040 HC1   -17.847455  -20.060668  -20.054114 H    2123 MOH     0.0372 ****
13041 C1    -18.084746  -20.347258  -19.028809 C    2123 MOH     0.1166 ****
13042 HC2   -17.322644  -21.009845  -18.619394 H    2123 MOH     0.0372 ****
13043 HC3   -19.037952  -20.875940  -19.047901 H    2123 MOH     0.0372 ****
13044 O1    -18.186360  -19.220901  -18.190888 O    2123 MOH    -0.6497 ****
13045 HO1   -17.412711  -18.664459  -18.310389 H    2123 MOH     0.4215 ****
13046 HC1   -20.750373  -30.637565  -11.479737 H    2124 MOH     0.0372 ****
13047 C1    -20.662038  -29.651645  -11.023653 C    2124 MOH     0.1166 ****
13048 HC2   -21.263060  -29.619802  -10.115728 H    2124 MOH     0.0372 ****
13049 HC3   -21.014222  -28.916390  -11.747024 H    2124 MOH     0.0372 ****
13050 O1    -19.322008  -29.447929  -10.716062 O    2124 MOH    -0.6497 ****
13051 HO1   -18.837034  -29.914557  -11.399834 H    2124 MOH     0.4215 ****
13052 HC1   -10.805514  -18.845313  -19.257205 H    2125 MOH     0.0372 ****
13053 C1    -10.385203  -17.961863  -18.776372 C    2125 MOH     0.1166 ****
13054 HC2   -10.131746  -17.220076  -19.533683 H    2125 MOH     0.0372 ****
13055 HC3    -9.498393  -18.244780  -18.209979 H    2125 MOH     0.0372 ****
13056 O1    -11.390370  -17.465434  -17.953300 O    2125 MOH    -0.6497 ****
13057 HO1   -11.034145  -17.269066  -17.084266 H    2125 MOH     0.4215 ****
13058 HC1   -16.454309  -16.537485   -6.681311 H    2126 MOH     0.0372 ****
13059 C1    -16.497033  -15.663426   -7.331142 C    2126 MOH     0.1166 ****
13060 HC2   -15.696248  -14.963280   -7.092847 H    2126 MOH     0.0372 ****
13061 HC3   -17.436382  -15.147400   -7.135980 H    2126 MOH     0.0372 ****
13062 O1    -16.496456  -16.017785   -8.722728 O    2126 MOH    -0.6497 ****
13063 HO1   -16.387337  -15.225375   -9.253765 H    2126 MOH     0.4215 ****
13064 HC1   -22.140632  -20.806946  -18.067144 H    2127 MOH     0.0372 ****
13065 C1    -22.723179  -21.679781  -17.771573 C    2127 MOH     0.1166 ****
13066 HC2   -22.387161  -22.594665  -18.258770 H    2127 MOH     0.0372 ****
13067 HC3   -23.743356  -21.499743  -18.108863 H    2127 MOH     0.0372 ****
13068 O1    -22.730107  -21.826750  -16.368674 O    2127 MOH    -0.6497 ****
13069 HO1   -22.916591  -20.964938  -15.987543 H    2127 MOH     0.4215 ****
13070 HC1   -22.971439  -23.821451  -13.796219 H    2128 MOH     0.0372 ****
13071 C1    -21.939714  -24.105184  -14.001987 C    2128 MOH     0.1166 ****
13072 HC2   -21.668937  -24.931070  -13.345085 H    2128 MOH     0.0372 ****
13073 HC3   -21.291350  -23.254394  -13.791269 H    2128 MOH     0.0372 ****
13074 O1    -21.801728  -24.424434  -15.363875 O    2128 MOH    -0.6497 ****
13075 HO1   -22.098486  -23.631616  -15.816423 H    2128 MOH     0.4215 ****
13076 HC1   -11.345914  -28.383626   -6.153102 H    2129 MOH     0.0372 ****
13077 C1    -11.270859  -27.341776   -6.462814 C    2129 MOH     0.1166 ****
13078 HC2   -10.232206  -27.117240   -6.706059 H    2129 MOH     0.0372 ****
13079 HC3   -11.632857  -26.740426   -5.627721 H    2129 MOH     0.0372 ****
13080 O1    -12.158823  -27.184192   -7.539031 O    2129 MOH    -0.6497 ****
13081 HO1   -11.791629  -27.704709   -8.256744 H    2129 MOH     0.4215 ****
13082 HC1   -23.681003  -20.066792  -12.599087 H    2130 MOH     0.0372 ****
13083 C1    -23.920603  -20.699576  -11.744902 C    2130 MOH     0.1166 ****
13084 HC2   -24.966184  -20.575061  -11.464181 H    2130 MOH     0.0372 ****
13085 HC3   -23.288404  -20.392165  -10.911223 H    2130 MOH     0.0372 ****
13086 O1    -23.618649  -22.049654  -12.060979 O    2130 MOH    -0.6497 ****
13087 HO1   -24.081106  -22.322772  -12.856474 H    2130 MOH     0.4215 ****
13088 HC1   -12.723472  -19.910433  -22.131594 H    2131 MOH     0.0372 ****
13089 C1    -11.979845  -20.431357  -22.734049 C    2131 MOH     0.1166 ****
13090 HC2   -11.064167  -19.841847  -22.782132 H    2131 MOH     0.0372 ****
13091 HC3   -12.315863  -20.552607  -23.764303 H    2131 MOH     0.0372 ****
13092 O1    -11.641517  -21.660185  -22.149978 O    2131 MOH    -0.6497 ****
13093 HO1   -12.345307  -21.931670  -21.556716 H    2131 MOH     0.4215 ****
13094 HC1   -12.007558  -25.587533  -17.471760 H    2132 MOH     0.0372 ****
13095 C1    -12.046817  -26.657144  -17.676821 C    2132 MOH     0.1166 ****
13096 HC2   -12.825086  -27.085396  -17.045375 H    2132 MOH     0.0372 ****
13097 HC3   -11.078024  -27.093561  -17.432869 H    2132 MOH     0.0372 ****
13098 O1    -12.335492  -26.949041  -19.045073 O    2132 MOH    -0.6497 ****
13099 HO1   -11.905944  -27.763497  -19.317309 H    2132 MOH     0.4215 ****
13100 HC1    -7.846017  -26.907400  -19.718238 H    2133 MOH     0.0372 ****
13101 C1     -8.368519  -25.978227  -19.490550 C    2133 MOH     0.1166 ****
13102 HC2    -9.400821  -26.191333  -19.211950 H    2133 MOH     0.0372 ****
13103 HC3    -8.328104  -25.331970  -20.366655 H    2133 MOH     0.0372 ****
13104 O1     -7.680895  -25.414844  -18.424233 O    2133 MOH    -0.6497 ****
13105 HO1    -7.218437  -26.130095  -17.981584 H    2133 MOH     0.4215 ****
13106 HC1   -14.445708  -31.693295  -10.078251 H    2134 MOH     0.0372 ****
13107 C1    -14.194560  -32.213811   -9.154063 C    2134 MOH     0.1166 ****
13108 HC2   -14.861400  -33.067458   -9.033148 H    2134 MOH     0.0372 ****
13109 HC3   -14.317536  -31.543876   -8.303413 H    2134 MOH     0.0372 ****
13110 O1    -12.854530  -32.644513   -9.250937 O    2134 MOH    -0.6497 ****
13111 HO1   -12.664582  -33.200139   -8.492211 H    2134 MOH     0.4215 ****
13112 HC1   -22.919478  -25.465059  -10.857483 H    2135 MOH     0.0372 ****
13113 C1    -23.929263  -25.065792  -10.765559 C    2135 MOH     0.1166 ****
13114 HC2   -24.541832  -25.807171  -10.252200 H    2135 MOH     0.0372 ****
13115 HC3   -24.330522  -24.873915  -11.761166 H    2135 MOH     0.0372 ****
13116 O1    -23.861136  -23.876973  -10.003298 O    2135 MOH    -0.6497 ****
13117 HO1   -23.526850  -23.183767  -10.577469 H    2135 MOH     0.4215 ****
13118 HC1   -10.461414  -32.121139  -15.134065 H    2136 MOH     0.0372 ****
13119 C1     -9.590192  -31.617769  -15.553379 C    2136 MOH     0.1166 ****
13120 HC2    -9.888105  -30.668591  -15.996735 H    2136 MOH     0.0372 ****
13121 HC3    -9.151406  -32.229325  -16.342510 H    2136 MOH     0.0372 ****
13122 O1     -8.621398  -31.342609  -14.567672 O    2136 MOH    -0.6497 ****
13123 HO1    -8.191272  -32.180743  -14.384532 H    2136 MOH     0.4215 ****
13124 HC1   -27.175704  -18.228858  -12.433624 H    2137 MOH     0.0372 ****
13125 C1    -26.313143  -17.765904  -12.913043 C    2137 MOH     0.1166 ****
13126 HC2   -25.526214  -17.651186  -12.167045 H    2137 MOH     0.0372 ****
13127 HC3   -26.630108  -16.773861  -13.235483 H    2137 MOH     0.0372 ****
13128 O1    -25.930359  -18.553415  -14.071991 O    2137 MOH    -0.6497 ****
13129 HO1   -26.624334  -18.507283  -14.733136 H    2137 MOH     0.4215 ****
13130 HC1   -20.489410  -22.791441   -6.172901 H    2138 MOH     0.0372 ****
13131 C1    -19.881461  -21.920647   -6.421095 C    2138 MOH     0.1166 ****
13132 HC2   -18.831838  -22.190091   -6.535647 H    2138 MOH     0.0372 ****
13133 HC3   -19.938041  -21.198456   -5.605801 H    2138 MOH     0.0372 ****
13134 O1    -20.276368  -21.358489   -7.630955 O    2138 MOH    -0.6497 ****
13135 HO1   -19.994621  -21.956981   -8.326748 H    2138 MOH     0.4215 ****
13136 HC1   -14.908743  -16.541568  -16.860820 H    2139 MOH     0.0372 ****
13137 C1    -15.923724  -16.924913  -16.964765 C    2139 MOH     0.1166 ****
13138 HC2   -16.644835  -16.107600  -16.943551 H    2139 MOH     0.0372 ****
13139 HC3   -16.158706  -17.619751  -16.158663 H    2139 MOH     0.0372 ****
13140 O1    -16.051319  -17.636898  -18.147047 O    2139 MOH    -0.6497 ****
13141 HO1   -15.330786  -18.270091  -18.178867 H    2139 MOH     0.4215 ****
13142 HC1   -12.034693  -24.823701   -9.600954 H    2140 MOH     0.0372 ****
13143 C1    -12.657077  -23.929229   -9.610147 C    2140 MOH     0.1166 ****
13144 HC2   -12.213094  -23.142126   -9.000621 H    2140 MOH     0.0372 ****
13145 HC3   -13.628757  -24.207246   -9.200732 H    2140 MOH     0.0372 ****
13146 O1    -12.836633  -23.476481  -10.931729 O    2140 MOH    -0.6497 ****
13147 HO1   -11.979267  -23.200914  -11.264777 H    2140 MOH     0.4215 ****
13148 HC1   -20.294266  -18.855927  -15.419029 H    2141 MOH     0.0372 ****
13149 C1    -20.112978  -19.894103  -15.139722 C    2141 MOH     0.1166 ****
13150 HC2   -20.772312  -20.531378  -15.728742 H    2141 MOH     0.0372 ****
13151 HC3   -20.337567  -20.048829  -14.084012 H    2141 MOH     0.0372 ****
13152 O1    -18.782763  -20.289695  -15.380845 O    2141 MOH    -0.6497 ****
13153 HO1   -18.603207  -20.181509  -16.317762 H    2141 MOH     0.4215 ****
13154 HC1   -16.405812  -24.644071  -11.760459 H    2142 MOH     0.0372 ****
13155 C1    -15.952015  -23.764705  -11.303668 C    2142 MOH     0.1166 ****
13156 HC2   -15.114857  -23.447904  -11.925922 H    2142 MOH     0.0372 ****
13157 HC3   -15.648328  -24.013736  -10.286848 H    2142 MOH     0.0372 ****
13158 O1    -16.902333  -22.766946  -11.339023 O    2142 MOH    -0.6497 ****
13159 HO1   -17.230268  -22.711424  -12.239877 H    2142 MOH     0.4215 ****
13160 HC1   -24.573009  -13.171478  -14.089668 H    2143 MOH     0.0372 ****
13161 C1    -25.480603  -13.235165  -13.490042 C    2143 MOH     0.1166 ****
13162 HC2   -26.091440  -14.081872  -13.802583 H    2143 MOH     0.0372 ****
13163 HC3   -26.029664  -12.303134  -13.622271 H    2143 MOH     0.0372 ****
13164 O1    -25.108790  -13.418468  -12.165631 O    2143 MOH    -0.6497 ****
13165 HO1   -24.581669  -14.221084  -12.167045 H    2143 MOH     0.4215 ****
13166 HC1    -9.042864  -21.325013   -6.383619 H    2144 MOH     0.0372 ****
13167 C1     -9.295743  -20.460343   -5.769850 C    2144 MOH     0.1166 ****
13168 HC2    -8.488030  -20.277039   -5.062036 H    2144 MOH     0.0372 ****
13169 HC3   -10.213730  -20.693044   -5.231035 H    2144 MOH     0.0372 ****
13170 O1     -9.488001  -19.351949   -6.626156 O    2144 MOH    -0.6497 ****
13171 HO1   -10.173316  -19.623026   -7.241339 H    2144 MOH     0.4215 ****
13172 HC1   -12.783516  -28.584484   -9.917738 H    2145 MOH     0.0372 ****
13173 C1    -11.960792  -29.275240  -10.103000 C    2145 MOH     0.1166 ****
13174 HC2   -11.685396  -29.153990  -11.150225 H    2145 MOH     0.0372 ****
13175 HC3   -12.269097  -30.315048   -9.996227 H    2145 MOH     0.0372 ****
13176 O1    -10.870755  -28.964563   -9.218410 O    2145 MOH    -0.6497 ****
13177 HO1   -10.259918  -29.705125   -9.205682 H    2145 MOH     0.4215 ****
13178 HC1    -7.949363  -27.626733  -10.982641 H    2146 MOH     0.0372 ****
13179 C1     -8.780747  -26.943326  -11.152347 C    2146 MOH     0.1166 ****
13180 HC2    -9.702775  -27.403422  -10.795258 H    2146 MOH     0.0372 ****
13181 HC3    -8.851184  -26.755123  -12.223613 H    2146 MOH     0.0372 ****
13182 O1     -8.452812  -25.722663  -10.500394 O    2146 MOH    -0.6497 ****
13183 HO1    -7.839666  -25.919847   -9.788338 H    2146 MOH     0.4215 ****
13184 HC1   -15.442792  -25.397289   -2.499481 H    2147 MOH     0.0372 ****
13185 C1    -16.334221  -24.770628   -2.531301 C    2147 MOH     0.1166 ****
13186 HC2   -17.222763  -25.401372   -2.571606 H    2147 MOH     0.0372 ****
13187 HC3   -16.324983  -24.152540   -3.429326 H    2147 MOH     0.0372 ****
13188 O1    -16.323828  -23.923105   -1.409829 O    2147 MOH    -0.6497 ****
13189 HO1   -15.568077  -23.342984   -1.526502 H    2147 MOH     0.4215 ****
13190 HC1    -8.189540  -24.800431  -14.960117 H    2148 MOH     0.0372 ****
13191 C1     -9.199326  -25.121314  -15.216089 C    2148 MOH     0.1166 ****
13192 HC2    -9.896765  -24.690612  -14.496962 H    2148 MOH     0.0372 ****
13193 HC3    -9.280732  -26.207662  -15.181441 H    2148 MOH     0.0372 ****
13194 O1     -9.554396  -24.662034  -16.488174 O    2148 MOH    -0.6497 ****
13195 HO1    -8.955684  -25.069466  -17.117499 H    2148 MOH     0.4215 ****
13196 HC1   -13.785796  -24.135394   -3.912987 H    2149 MOH     0.0372 ****
13197 C1    -13.561207  -23.069458   -3.862783 C    2149 MOH     0.1166 ****
13198 HC2   -13.920319  -22.521589   -4.733938 H    2149 MOH     0.0372 ****
13199 HC3   -12.475211  -23.022917   -3.934908 H    2149 MOH     0.0372 ****
13200 O1    -13.922051  -22.471374   -2.596355 O    2149 MOH    -0.6497 ****
13201 HO1   -13.994220  -21.522605   -2.722220 H    2149 MOH     0.4215 ****
13202 HC1   -19.543711  -26.229300   -7.463371 H    2150 MOH     0.0372 ****
13203 C1    -19.198455  -27.072332   -8.060876 C    2150 MOH     0.1166 ****
13204 HC2   -18.458292  -27.604280   -7.461956 H    2150 MOH     0.0372 ****
13205 HC3   -18.756782  -26.686538   -8.979408 H    2150 MOH     0.0372 ****
13206 O1    -20.250965  -27.990074   -8.394630 O    2150 MOH    -0.6497 ****
13207 HO1   -19.972105  -28.503243   -9.156184 H    2150 MOH     0.4215 ****
13208 HC1   -12.386299  -17.692011  -13.685910 H    2151 MOH     0.0372 ****
13209 C1    -12.878779  -17.255594  -14.554945 C    2151 MOH     0.1166 ****
13210 HC2   -13.821015  -16.768145  -14.304629 H    2151 MOH     0.0372 ****
13211 HC3   -13.131081  -18.090053  -15.209725 H    2151 MOH     0.0372 ****
13212 O1    -12.041044  -16.330503  -15.254980 O    2151 MOH    -0.6497 ****
13213 HO1   -12.582021  -15.630766  -15.626918 H    2151 MOH     0.4215 ****
13214 HC1    -6.045261  -29.091937  -16.025019 H    2152 MOH     0.0372 ****
13215 C1     -6.951124  -28.767379  -16.536258 C    2152 MOH     0.1166 ****
13216 HC2    -7.836779  -29.160114  -16.037040 H    2152 MOH     0.0372 ****
13217 HC3    -6.943618  -29.115615  -17.569341 H    2152 MOH     0.0372 ****
13218 O1     -7.044077  -27.375253  -16.522116 O    2152 MOH    -0.6497 ****
13219 HO1    -6.773877  -27.089887  -15.646010 H    2152 MOH     0.4215 ****
13220 HC1   -13.510978  -24.528129  -14.040171 H    2153 MOH     0.0372 ****
13221 C1    -12.847602  -25.349933  -13.770763 C    2153 MOH     0.1166 ****
13222 HC2   -11.831466  -24.963730  -13.692981 H    2153 MOH     0.0372 ****
13223 HC3   -12.861459  -26.132545  -14.529489 H    2153 MOH     0.0372 ****
13224 O1    -13.225767  -25.776960  -12.483829 O    2153 MOH    -0.6497 ****
13225 HO1   -13.172073  -25.007821  -11.912486 H    2153 MOH     0.4215 ****
13226 HC1    -9.731065  -18.328879   -9.936830 H    2154 MOH     0.0372 ****
13227 C1    -10.070547  -19.074748  -10.655958 C    2154 MOH     0.1166 ****
13228 HC2   -10.576884  -19.912065  -10.174418 H    2154 MOH     0.0372 ****
13229 HC3    -9.183737  -19.471566  -11.150932 H    2154 MOH     0.0372 ****
13230 O1    -10.911747  -18.454211  -11.610552 O    2154 MOH    -0.6497 ****
13231 HO1   -10.382317  -17.769170  -12.026331 H    2154 MOH     0.4215 ****
13232 HC1   -16.362511  -20.832665  -15.773997 H    2155 MOH     0.0372 ****
13233 C1    -15.706063  -20.557098  -14.948803 C    2155 MOH     0.1166 ****
13234 HC2   -16.252814  -20.593024  -14.005523 H    2155 MOH     0.0372 ****
13235 HC3   -15.359653  -19.534436  -15.099417 H    2155 MOH     0.0372 ****
13236 O1    -14.587159  -21.429116  -14.883749 O    2155 MOH    -0.6497 ****
13237 HO1   -13.982095  -21.102518  -14.213412 H    2155 MOH     0.4215 ****
13238 HC1   -12.586063  -16.117806   -8.006429 H    2156 MOH     0.0372 ****
13239 C1    -12.897832  -16.536669   -7.049006 C    2156 MOH     0.1166 ****
13240 HC2   -13.424953  -15.790391   -6.456451 H    2156 MOH     0.0372 ****
13241 HC3   -12.005248  -16.870207   -6.520797 H    2156 MOH     0.0372 ****
13242 O1    -13.712473  -17.650778   -7.275987 O    2156 MOH    -0.6497 ****
13243 HO1   -14.398365  -17.409503   -7.901777 H    2156 MOH     0.4215 ****
13244 HC1   -19.906287  -10.723621  -15.725914 H    2157 MOH     0.0372 ****
13245 C1    -20.813881  -10.343950  -16.195432 C    2157 MOH     0.1166 ****
13246 HC2   -20.683400  -10.363955  -17.278013 H    2157 MOH     0.0372 ****
13247 HC3   -20.957064   -9.313123  -15.873699 H    2157 MOH     0.0372 ****
13248 O1    -21.954148  -11.137177  -15.821373 O    2157 MOH    -0.6497 ****
13249 HO1   -22.727220  -10.632174  -16.083710 H    2157 MOH     0.4215 ****
13250 HC1   -17.748729  -19.193548   -9.214167 H    2158 MOH     0.0372 ****
13251 C1    -17.166760  -18.951049  -10.103707 C    2158 MOH     0.1166 ****
13252 HC2   -17.203133  -19.772853  -10.818592 H    2158 MOH     0.0372 ****
13253 HC3   -16.139653  -18.807754   -9.766417 H    2158 MOH     0.0372 ****
13254 O1    -17.632681  -17.706708  -10.635452 O    2158 MOH    -0.6497 ****
13255 HO1   -17.216989  -17.029424  -10.097343 H    2158 MOH     0.4215 ****
13256 HC1   -20.254429  -23.759806  -11.542670 H    2159 MOH     0.0372 ****
13257 C1    -20.091616  -23.983934  -10.488373 C    2159 MOH     0.1166 ****
13258 HC2   -19.524081  -24.910658  -10.396450 H    2159 MOH     0.0372 ****
13259 HC3   -21.075421  -24.101509  -10.034411 H    2159 MOH     0.0372 ****
13260 O1    -19.398796  -22.907383   -9.896525 O    2159 MOH    -0.6497 ****
13261 HO1   -18.560483  -22.816752  -10.354730 H    2159 MOH     0.4215 ****
13262 HC1   -22.319033  -29.825967   -6.783134 H    2160 MOH     0.0372 ****
13263 C1    -22.712209  -29.391183   -5.864602 C    2160 MOH     0.1166 ****
13264 HC2   -22.896384  -28.326471   -6.006024 H    2160 MOH     0.0372 ****
13265 HC3   -22.013038  -29.535294   -5.040823 H    2160 MOH     0.0372 ****
13266 O1    -23.876724  -30.052136   -5.535798 O    2160 MOH    -0.6497 ****
13267 HO1   -24.301077  -29.602655   -4.801114 H    2160 MOH     0.4215 ****
13268 HC1   -17.396545  -16.584025  -21.568737 H    2161 MOH     0.0372 ****
13269 C1    -18.244095  -17.248654  -21.399031 C    2161 MOH     0.1166 ****
13270 HC2   -19.109543  -16.604846  -21.242761 H    2161 MOH     0.0372 ****
13271 HC3   -18.011423  -17.850412  -20.520805 H    2161 MOH     0.0372 ****
13272 O1    -18.377463  -17.950433  -22.614548 O    2161 MOH    -0.6497 ****
13273 HO1   -17.531645  -18.356231  -22.819609 H    2161 MOH     0.4215 ****
13274 HC1    -6.445365  -30.197881  -11.587924 H    2162 MOH     0.0372 ****
13275 C1     -6.061427  -29.601022  -12.415239 C    2162 MOH     0.1166 ****
13276 HC2    -5.373803  -30.218294  -12.993653 H    2162 MOH     0.0372 ****
13277 HC3    -5.560287  -28.739210  -11.973298 H    2162 MOH     0.0372 ****
13278 O1     -7.126638  -29.161339  -13.202249 O    2162 MOH    -0.6497 ****
13279 HO1    -7.656069  -29.917415  -13.463879 H    2162 MOH     0.4215 ****
13280 HC1   -15.979150  -21.201722   -6.987488 H    2163 MOH     0.0372 ****
13281 C1    -15.915642  -22.124771   -7.563780 C    2163 MOH     0.1166 ****
13282 HC2   -14.883917  -22.328895   -7.849451 H    2163 MOH     0.0372 ****
13283 HC3   -16.532829  -22.012911   -8.454734 H    2163 MOH     0.0372 ****
13284 O1    -16.433525  -23.178052   -6.798690 O    2163 MOH    -0.6497 ****
13285 HO1   -16.183532  -24.002713   -7.222954 H    2163 MOH     0.4215 ****
13286 HC1   -28.030182  -21.894111  -15.469941 H    2164 MOH     0.0372 ****
13287 C1    -28.196459  -20.823684  -15.351147 C    2164 MOH     0.1166 ****
13288 HC2   -27.843121  -20.502801  -14.371097 H    2164 MOH     0.0372 ****
13289 HC3   -29.263402  -20.610578  -15.423272 H    2164 MOH     0.0372 ****
13290 O1    -27.509412  -20.109249  -16.360895 O    2164 MOH    -0.6497 ****
13291 HO1   -27.600056  -20.639156  -17.155683 H    2164 MOH     0.4215 ****
13292 HC1   -21.366983  -15.578102  -18.318874 H    2165 MOH     0.0372 ****
13293 C1    -20.495761  -16.233340  -18.337966 C    2165 MOH     0.1166 ****
13294 HC2   -20.496339  -16.804888  -19.265690 H    2165 MOH     0.0372 ****
13295 HC3   -20.523474  -16.942467  -17.509944 H    2165 MOH     0.0372 ****
13296 O1    -19.317389  -15.448687  -18.264427 O    2165 MOH    -0.6497 ****
13297 HO1   -19.346834  -14.937968  -17.451961 H    2165 MOH     0.4215 ****
13298 HC1    -6.553330  -24.741235  -12.852231 H    2166 MOH     0.0372 ****
13299 C1     -5.913048  -25.616519  -12.743337 C    2166 MOH     0.1166 ****
13300 HC2    -6.063159  -26.017419  -11.740659 H    2166 MOH     0.0372 ****
13301 HC3    -4.874395  -25.303801  -12.849403 H    2166 MOH     0.0372 ****
13302 O1     -6.292367  -26.558348  -13.746721 O    2166 MOH    -0.6497 ****
13303 HO1    -6.363381  -27.431591  -13.354277 H    2166 MOH     0.4215 ****
13304 HC1   -25.552195  -22.343184  -15.793796 H    2167 MOH     0.0372 ****
13305 C1    -25.284882  -23.347883  -15.464991 C    2167 MOH     0.1166 ****
13306 HC2   -24.340337  -23.637331  -15.925318 H    2167 MOH     0.0372 ****
13307 HC3   -26.047561  -24.061501  -15.774704 H    2167 MOH     0.0372 ****
13308 O1    -25.117450  -23.340126  -14.035928 O    2167 MOH    -0.6497 ****
13309 HO1   -25.945948  -23.152332  -13.589037 H    2167 MOH     0.4215 ****
13310 HC1    -8.417594  -22.527712   -8.431400 H    2168 MOH     0.0372 ****
13311 C1     -7.559074  -22.166004   -8.997085 C    2168 MOH     0.1166 ****
13312 HC2    -7.907216  -21.646712   -9.889454 H    2168 MOH     0.0372 ****
13313 HC3    -6.929762  -23.006588   -9.290534 H    2168 MOH     0.0372 ****
13314 O1     -6.809673  -21.276431   -8.201590 O    2168 MOH    -0.6497 ****
13315 HO1    -6.642242  -21.694886   -7.353769 H    2168 MOH     0.4215 ****
13316 HC1    -7.618541  -21.206621  -18.363422 H    2169 MOH     0.0372 ****
13317 C1     -8.065410  -20.792657  -19.267104 C    2169 MOH     0.1166 ****
13318 HC2    -9.093093  -20.473815  -19.095277 H    2169 MOH     0.0372 ****
13319 HC3    -8.034810  -21.565063  -20.036436 H    2169 MOH     0.0372 ****
13320 O1     -7.254810  -19.728354  -19.655306 O    2169 MOH    -0.6497 ****
13321 HO1    -7.072945  -19.182118  -18.887388 H    2169 MOH     0.4215 ****
13322 HC1   -22.670640  -16.265592  -13.717023 H    2170 MOH     0.0372 ****
13323 C1    -23.041299  -16.662409  -12.772328 C    2170 MOH     0.1166 ****
13324 HC2   -22.186820  -16.785292  -12.106941 H    2170 MOH     0.0372 ****
13325 HC3   -23.512994  -17.638123  -12.888294 H    2170 MOH     0.0372 ****
13326 O1    -23.896354  -15.727112  -12.210179 O    2170 MOH    -0.6497 ****
13327 HO1   -23.711602  -15.725479  -11.268312 H    2170 MOH     0.4215 ****
13328 HC1   -22.786687  -29.320147   -1.565393 H    2171 MOH     0.0372 ****
13329 C1    -21.892372  -29.762688   -1.125573 C    2171 MOH     0.1166 ****
13330 HC2   -21.826554  -29.489570   -0.072691 H    2171 MOH     0.0372 ****
13331 HC3   -21.002098  -29.392815   -1.634689 H    2171 MOH     0.0372 ****
13332 O1    -21.943756  -31.175228   -1.241538 O    2171 MOH    -0.6497 ****
13333 HO1   -21.038471  -31.483455   -1.153150 H    2171 MOH     0.4215 ****
13334 HC1   -23.382513  -20.940443   -7.978852 H    2172 MOH     0.0372 ****
13335 C1    -23.448908  -21.200905   -6.922434 C    2172 MOH     0.1166 ****
13336 HC2   -23.340943  -22.279089   -6.798690 H    2172 MOH     0.0372 ****
13337 HC3   -24.432713  -20.886146   -6.573830 H    2172 MOH     0.0372 ****
13338 O1    -22.465103  -20.481980   -6.199064 O    2172 MOH    -0.6497 ****
13339 HO1   -21.642379  -20.590982   -6.682018 H    2172 MOH     0.4215 ****
13340 HC1   -15.835967  -18.379501   -3.130220 H    2173 MOH     0.0372 ****
13341 C1    -15.398336  -19.282955   -3.555191 C    2173 MOH     0.1166 ****
13342 HC2   -15.154694  -19.087812   -4.598881 H    2173 MOH     0.0372 ****
13343 HC3   -16.103858  -20.109249   -3.461853 H    2173 MOH     0.0372 ****
13344 O1    -14.262110  -19.580568   -2.807780 O    2173 MOH    -0.6497 ****
13345 HO1   -13.634531  -18.854702   -2.855863 H    2173 MOH     0.4215 ****
13346 HC1   -19.055850  -25.577327   -3.763081 H    2174 MOH     0.0372 ****
13347 C1    -19.466346  -26.533853   -3.439933 C    2174 MOH     0.1166 ****
13348 HC2   -18.687500  -27.296461   -3.418720 H    2174 MOH     0.0372 ****
13349 HC3   -20.251542  -26.812686   -4.142090 H    2174 MOH     0.0372 ****
13350 O1    -20.062171  -26.389333   -2.184111 O    2174 MOH    -0.6497 ****
13351 HO1   -19.441520  -25.940260   -1.605698 H    2174 MOH     0.4215 ****
13352 HC1   -22.672949  -14.851828  -16.792231 H    2175 MOH     0.0372 ****
13353 C1    -22.106568  -14.546866  -15.911883 C    2175 MOH     0.1166 ****
13354 HC2   -21.720898  -15.440522  -15.420443 H    2175 MOH     0.0372 ****
13355 HC3   -22.760706  -14.023084  -15.215382 H    2175 MOH     0.0372 ****
13356 O1    -21.011912  -13.732411  -16.317055 O    2175 MOH    -0.6497 ****
13357 HO1   -21.362941  -12.857127  -16.493831 H    2175 MOH     0.4215 ****
13358 HC1   -20.551187  -28.606938  -14.429787 H    2176 MOH     0.0372 ****
13359 C1    -20.862956  -27.563455  -14.465142 C    2176 MOH     0.1166 ****
13360 HC2   -20.056975  -26.906175  -14.137044 H    2176 MOH     0.0372 ****
13361 HC3   -21.705887  -27.440164  -13.786320 H    2176 MOH     0.0372 ****
13362 O1    -21.316176  -27.217260  -15.759147 O    2176 MOH    -0.6497 ****
13363 HO1   -21.527486  -26.281555  -15.729449 H    2176 MOH     0.4215 ****
13364 HC1   -13.855078  -20.593432   -6.932333 H    2177 MOH     0.0372 ****
13365 C1    -12.929586  -20.293778   -6.438773 C    2177 MOH     0.1166 ****
13366 HC2   -12.485604  -21.147833   -5.926828 H    2177 MOH     0.0372 ****
13367 HC3   -13.175537  -19.541784   -5.689240 H    2177 MOH     0.0372 ****
13368 O1    -12.047395  -19.794490   -7.464785 O    2177 MOH    -0.6497 ****
13369 HO1   -12.237920  -18.856335   -7.539738 H    2177 MOH     0.4215 ****
13370 HC1   -24.955215  -28.825350   -7.729950 H    2178 MOH     0.0372 ****
13371 C1    -24.471973  -28.975994   -8.695151 C    2178 MOH     0.1166 ****
13372 HC2   -24.016443  -29.965588   -8.714950 H    2178 MOH     0.0372 ****
13373 HC3   -23.711602  -28.206854   -8.833744 H    2178 MOH     0.0372 ****
13374 O1    -25.503120  -28.926596   -9.681565 O    2178 MOH    -0.6497 ****
13375 HO1   -26.015807  -28.125613   -9.551457 H    2178 MOH     0.4215 ****
13376 HC1   -15.438173  -16.724463  -11.584389 H    2179 MOH     0.0372 ****
13377 C1    -14.492473  -16.381534  -11.164368 C    2179 MOH     0.1166 ****
13378 HC2   -14.606211  -15.407046  -10.688485 H    2179 MOH     0.0372 ****
13379 HC3   -13.762702  -16.268041  -11.966227 H    2179 MOH     0.0372 ****
13380 O1    -14.050800  -17.303767  -10.192096 O    2179 MOH    -0.6497 ****
13381 HO1   -13.219416  -17.692011  -10.474231 H    2179 MOH     0.4215 ****
13382 HC1   -15.520157  -24.790224  -16.513630 H    2180 MOH     0.0372 ****
13383 C1    -14.738424  -24.117023  -16.865062 C    2180 MOH     0.1166 ****
13384 HC2   -14.178972  -24.551807  -17.693084 H    2180 MOH     0.0372 ****
13385 HC3   -14.053110  -23.912082  -16.043404 H    2180 MOH     0.0372 ****
13386 O1    -15.312310  -22.917589  -17.310540 O    2180 MOH    -0.6497 ****
13387 HO1   -15.117166  -22.274190  -16.624646 H    2180 MOH     0.4215 ****
13388 HC1   -10.620300   -2.049325  -16.242101 H    2181 MOH     0.0372 ****
13389 C1    -11.656644   -1.910520  -15.935217 C    2181 MOH     0.1166 ****
13390 HC2   -12.220138   -1.546363  -16.793645 H    2181 MOH     0.0372 ****
13391 HC3   -11.726503   -1.160568  -15.146793 H    2181 MOH     0.0372 ****
13392 O1    -12.182033   -3.153228  -15.518024 O    2181 MOH    -0.6497 ****
13393 HO1   -12.944713   -3.000952  -14.955874 H    2181 MOH     0.4215 ****
13394 HC1   -16.121871  -12.590296  -12.150782 H    2182 MOH     0.0372 ****
13395 C1    -16.922656  -12.984255  -11.524992 C    2182 MOH     0.1166 ****
13396 HC2   -17.488459  -13.714612  -12.104113 H    2182 MOH     0.0372 ****
13397 HC3   -17.595269  -12.207359  -11.163661 H    2182 MOH     0.0372 ****
13398 O1    -16.425557  -13.725226  -10.480595 O    2182 MOH    -0.6497 ****
13399 HO1   -15.881116  -13.129183   -9.961579 H    2182 MOH     0.4215 ****
13400 HC1    -4.012527  -11.351262   -7.644390 H    2183 MOH     0.0372 ****
13401 C1     -3.951327  -10.571508   -6.886371 C    2183 MOH     0.1166 ****
13402 HC2    -3.591061  -11.017315   -5.958647 H    2183 MOH     0.0372 ****
13403 HC3    -4.944370  -10.146113   -6.740708 H    2183 MOH     0.0372 ****
13404 O1     -3.080106   -9.548846   -7.314171 O    2183 MOH    -0.6497 ****
13405 HO1    -2.193296   -9.908921   -7.380639 H    2183 MOH     0.4215 ****
13406 HC1     2.245950   -6.602110  -13.424988 H    2184 MOH     0.0372 ****
13407 C1      2.679540   -6.409008  -12.444231 C    2184 MOH     0.1166 ****
13408 HC2     2.965329   -5.358177  -12.393319 H    2184 MOH     0.0372 ****
13409 HC3     3.567505   -7.028321  -12.317659 H    2184 MOH     0.0372 ****
13410 O1      1.725180   -6.723768  -11.436604 O    2184 MOH    -0.6497 ****
13411 HO1     1.926098   -7.615382  -11.143861 H    2184 MOH     0.4215 ****
13412 HC1    -4.391268  -17.455799  -21.057498 H    2185 MOH     0.0372 ****
13413 C1     -4.578330  -18.441719  -20.632527 C    2185 MOH     0.1166 ****
13414 HC2    -4.970351  -18.347005  -19.619950 H    2185 MOH     0.0372 ****
13415 HC3    -3.621083  -18.958153  -20.563938 H    2185 MOH     0.0372 ****
13416 O1     -5.419529  -19.245559  -21.481763 O    2185 MOH    -0.6497 ****
13417 HO1    -6.135443  -19.591754  -20.944361 H    2185 MOH     0.4215 ****
13418 HC1    -1.760860  -16.983864  -14.420594 H    2186 MOH     0.0372 ****
13419 C1     -2.609565  -16.549079  -13.892385 C    2186 MOH     0.1166 ****
13420 HC2    -2.745820  -15.521927  -14.230382 H    2186 MOH     0.0372 ****
13421 HC3    -2.445021  -16.561327  -12.814755 H    2186 MOH     0.0372 ****
13422 O1     -3.775236  -17.247184  -14.226140 O    2186 MOH    -0.6497 ****
13423 HO1    -3.748100  -18.047759  -13.696517 H    2186 MOH     0.4215 ****
13424 HC1     6.315693   -8.213466  -18.040274 H    2187 MOH     0.0372 ****
13425 C1      6.121125   -7.472087  -17.265285 C    2187 MOH     0.1166 ****
13426 HC2     5.057069   -7.430037  -17.032647 H    2187 MOH     0.0372 ****
13427 HC3     6.422502   -6.483718  -17.612474 H    2187 MOH     0.0372 ****
13428 O1      6.790852   -7.802360  -16.054011 O    2187 MOH    -0.6497 ****
13429 HO1     6.573191   -8.696832  -15.781775 H    2187 MOH     0.4215 ****
13430 HC1    -9.570678   -3.500648  -11.573075 H    2188 MOH     0.0372 ****
13431 C1     -8.966769   -2.949104  -10.852534 C    2188 MOH     0.1166 ****
13432 HC2    -8.155015   -3.584338  -10.498980 H    2188 MOH     0.0372 ****
13433 HC3    -9.615134   -2.663330  -10.023804 H    2188 MOH     0.0372 ****
13434 O1     -8.462165   -1.825197  -11.508022 O    2188 MOH    -0.6497 ****
13435 HO1    -7.649256   -1.563509  -11.068908 H    2188 MOH     0.4215 ****
13436 HC1    -2.866486   -9.908105  -24.034418 H    2189 MOH     0.0372 ****
13437 C1     -3.658611  -10.440460  -23.508331 C    2189 MOH     0.1166 ****
13438 HC2    -3.631475  -10.182856  -22.449792 H    2189 MOH     0.0372 ****
13439 HC3    -3.492911  -11.508030  -23.650459 H    2189 MOH     0.0372 ****
13440 O1     -4.887212  -10.024864  -24.064117 O    2189 MOH    -0.6497 ****
13441 HO1    -5.581764  -10.383714  -23.506209 H    2189 MOH     0.4215 ****
13442 HC1    -2.170202   -2.017073  -25.153768 H    2190 MOH     0.0372 ****
13443 C1     -1.632689   -1.674553  -26.038359 C    2190 MOH     0.1166 ****
13444 HC2    -1.960624   -2.248550  -26.905272 H    2190 MOH     0.0372 ****
13445 HC3    -0.573251   -1.859081  -25.860168 H    2190 MOH     0.0372 ****
13446 O1     -1.893074   -0.293857  -26.307059 O    2190 MOH    -0.6497 ****
13447 HO1    -1.633843   -0.088917  -27.207913 H    2190 MOH     0.4215 ****
13448 HC1   -11.508842   -8.822164   -7.188306 H    2191 MOH     0.0372 ****
13449 C1    -12.529020   -9.114878   -6.940112 C    2191 MOH     0.1166 ****
13450 HC2   -12.690101   -9.057315   -5.864602 H    2191 MOH     0.0372 ****
13451 HC3   -12.737444  -10.137132   -7.256896 H    2191 MOH     0.0372 ****
13452 O1    -13.415253   -8.222447   -7.541152 O    2191 MOH    -0.6497 ****
13453 HO1   -12.963765   -7.846042   -8.300585 H    2191 MOH     0.4215 ****
13454 HC1     1.198637   -3.849292  -16.511509 H    2192 MOH     0.0372 ****
13455 C1      1.247134   -4.936865  -16.562421 C    2192 MOH     0.1166 ****
13456 HC2     0.868970   -5.291633  -17.520550 H    2192 MOH     0.0372 ****
13457 HC3     0.640339   -5.383489  -15.774704 H    2192 MOH     0.0372 ****
13458 O1      2.583700   -5.371241  -16.488882 O    2192 MOH    -0.6497 ****
13459 HO1     2.551369   -6.330625  -16.467668 H    2192 MOH     0.4215 ****
13460 HC1    -7.711610   -4.873995  -22.084925 H    2193 MOH     0.0372 ****
13461 C1     -7.665999   -5.328783  -23.074874 C    2193 MOH     0.1166 ****
13462 HC2    -6.748589   -5.907680  -23.183769 H    2193 MOH     0.0372 ****
13463 HC3    -7.676391   -4.551070  -23.837842 H    2193 MOH     0.0372 ****
13464 O1     -8.769315   -6.165284  -23.291956 O    2193 MOH    -0.6497 ****
13465 HO1    -8.510085   -7.052816  -23.034569 H    2193 MOH     0.4215 ****
13466 HC1     0.395543   -9.430862  -23.589648 H    2194 MOH     0.0372 ****
13467 C1      0.594151   -8.470254  -23.115179 C    2194 MOH     0.1166 ****
13468 HC2     1.658785   -8.253066  -23.198618 H    2194 MOH     0.0372 ****
13469 HC3     0.364943   -8.505363  -22.050276 H    2194 MOH     0.0372 ****
13470 O1     -0.199128   -7.474536  -23.766425 O    2194 MOH    -0.6497 ****
13471 HO1    -0.151785   -6.698456  -23.202860 H    2194 MOH     0.4215 ****
13472 HC1   -16.909954   -6.035461  -10.984055 H    2195 MOH     0.0372 ****
13473 C1    -15.869569   -6.008109  -11.310032 C    2195 MOH     0.1166 ****
13474 HC2   -15.285291   -6.647834  -10.647473 H    2195 MOH     0.0372 ****
13475 HC3   -15.528355   -4.974424  -11.256292 H    2195 MOH     0.0372 ****
13476 O1    -15.802596   -6.490250  -12.633028 O    2195 MOH    -0.6497 ****
13477 HO1   -16.397267   -7.243060  -12.676869 H    2195 MOH     0.4215 ****
13478 HC1   -14.029554  -10.717661  -15.143965 H    2196 MOH     0.0372 ****
13479 C1    -13.115031  -10.411475  -15.651667 C    2196 MOH     0.1166 ****
13480 HC2   -12.519783   -9.757053  -15.014564 H    2196 MOH     0.0372 ****
13481 HC3   -13.390427   -9.865238  -16.553935 H    2196 MOH     0.0372 ****
13482 O1    -12.412973  -11.550896  -16.049768 O    2196 MOH    -0.6497 ****
13483 HO1   -11.478243  -11.352079  -15.959966 H    2196 MOH     0.4215 ****
13484 HC1    -0.763199  -14.898123  -18.577675 H    2197 MOH     0.0372 ****
13485 C1     -0.715856  -14.174707  -17.763088 C    2197 MOH     0.1166 ****
13486 HC2    -1.509136  -13.447209  -17.934208 H    2197 MOH     0.0372 ****
13487 HC3     0.244854  -13.661131  -17.809757 H    2197 MOH     0.0372 ****
13488 O1     -0.901186  -14.816474  -16.469083 O    2197 MOH    -0.6497 ****
13489 HO1    -1.092866  -14.140823  -15.813595 H    2197 MOH     0.4215 ****
13490 HC1   -17.083737  -11.055282  -19.999667 H    2198 MOH     0.0372 ****
13491 C1    -17.041013  -10.813599  -18.937592 C    2198 MOH     0.1166 ****
13492 HC2   -16.004092  -10.875653  -18.606666 H    2198 MOH     0.0372 ****
13493 HC3   -17.638570  -11.515378  -18.355644 H    2198 MOH     0.0372 ****
13494 O1    -17.474603   -9.519860  -18.668185 O    2198 MOH    -0.6497 ****
13495 HO1   -18.244211   -9.328392  -19.209122 H    2198 MOH     0.4215 ****
13496 HC1   -19.687009   -7.117727  -12.284425 H    2199 MOH     0.0372 ****
13497 C1    -20.121754   -8.003218  -11.821270 C    2199 MOH     0.1166 ****
13498 HC2   -20.533982   -8.678052  -12.571510 H    2199 MOH     0.0372 ****
13499 HC3   -20.943901   -7.717036  -11.164368 H    2199 MOH     0.0372 ****
13500 O1    -19.216469   -8.705813  -11.025775 O    2199 MOH    -0.6497 ****
13501 HO1   -19.743012   -9.423514  -10.665150 H    2199 MOH     0.4215 ****
13502 HC1     5.994686   -6.183655  -14.258667 H    2200 MOH     0.0372 ****
13503 C1      6.077247   -5.243868  -13.712780 C    2200 MOH     0.1166 ****
13504 HC2     5.250481   -4.588221  -13.985724 H    2200 MOH     0.0372 ****
13505 HC3     7.034494   -4.781731  -13.957439 H    2200 MOH     0.0372 ****
13506 O1      6.036255   -5.601901  -12.371399 O    2200 MOH    -0.6497 ****
13507 HO1     6.260267   -4.858890  -11.807128 H    2200 MOH     0.4215 ****
13508 HC1    -6.097916   -1.559427  -14.515347 H    2201 MOH     0.0372 ****
13509 C1     -6.763601   -0.700473  -14.430494 C    2201 MOH     0.1166 ****
13510 HC2    -7.805718   -1.020539  -14.437565 H    2201 MOH     0.0372 ****
13511 HC3    -6.628501   -0.075853  -15.312963 H    2201 MOH     0.0372 ****
13512 O1     -6.537857    0.096428  -13.226998 O    2201 MOH    -0.6497 ****
13513 HO1    -6.610603   -0.470629  -12.456959 H    2201 MOH     0.4215 ****
13514 HC1    -6.023438  -12.213482   -5.565496 H    2202 MOH     0.0372 ****
13515 C1     -5.723793  -13.260639   -5.580345 C    2202 MOH     0.1166 ****
13516 HC2    -5.089862  -13.449250   -6.447258 H    2202 MOH     0.0372 ****
13517 HC3    -6.591550  -13.914653   -5.659541 H    2202 MOH     0.0372 ****
13518 O1     -5.018848  -13.571725   -4.386749 O    2202 MOH    -0.6497 ****
13519 HO1    -4.584681  -14.420064   -4.505543 H    2202 MOH     0.4215 ****
13520 HC1   -13.774365   -8.945863  -19.612879 H    2203 MOH     0.0372 ****
13521 C1    -14.314765   -8.076294  -19.986232 C    2203 MOH     0.1166 ****
13522 HC2   -14.758170   -8.405751  -20.925977 H    2203 MOH     0.0372 ****
13523 HC3   -13.591922   -7.273270  -20.132603 H    2203 MOH     0.0372 ****
13524 O1    -15.306075   -7.737857  -18.992747 O    2203 MOH    -0.6497 ****
13525 HO1   -15.941738   -8.451883  -18.910015 H    2203 MOH     0.4215 ****
13526 HC1   -15.330901  -15.717886  -23.921988 H    2204 MOH     0.0372 ****
13527 C1    -14.918096  -14.710329  -23.958758 C    2204 MOH     0.1166 ****
13528 HC2   -15.003543  -14.239619  -22.979415 H    2204 MOH     0.0372 ****
13529 HC3   -15.494869  -14.122452  -24.672936 H    2204 MOH     0.0372 ****
13530 O1    -13.578643  -14.765851  -24.390093 O    2204 MOH    -0.6497 ****
13531 HO1   -13.545157  -15.426397  -25.085886 H    2204 MOH     0.4215 ****
13532 HC1     0.782368  -17.561127  -17.973099 H    2205 MOH     0.0372 ****
13533 C1      0.102249  -18.129817  -17.338824 C    2205 MOH     0.1166 ****
13534 HC2     0.456742  -18.092666  -16.308569 H    2205 MOH     0.0372 ****
13535 HC3     0.047401  -19.166359  -17.670457 H    2205 MOH     0.0372 ****
13536 O1     -1.130394  -17.506830  -17.420848 O    2205 MOH    -0.6497 ****
13537 HO1    -1.028203  -16.613991  -17.084973 H    2205 MOH     0.4215 ****
13538 HC1    -8.116332    5.608188   -8.658381 H    2206 MOH     0.0372 ****
13539 C1     -8.458124    4.938661   -9.447512 C    2206 MOH     0.1166 ****
13540 HC2    -8.956377    4.062560   -9.031734 H    2206 MOH     0.0372 ****
13541 HC3    -7.585747    4.620636  -10.018148 H    2206 MOH     0.0372 ****
13542 O1     -9.239279    5.668609  -10.369580 O    2206 MOH    -0.6497 ****
13543 HO1    -9.212143    5.181569  -11.196187 H    2206 MOH     0.4215 ****
13544 HC1    -5.349670  -11.097740  -12.989410 H    2207 MOH     0.0372 ****
13545 C1     -5.489966  -11.252058  -14.058556 C    2207 MOH     0.1166 ****
13546 HC2    -5.686265  -10.297573  -14.547873 H    2207 MOH     0.0372 ****
13547 HC3    -6.324237  -11.930975  -14.234625 H    2207 MOH     0.0372 ****
13548 O1     -4.314481  -11.806459  -14.610099 O    2207 MOH    -0.6497 ****
13549 HO1    -3.667848  -11.907296  -13.907942 H    2207 MOH     0.4215 ****
13550 HC1    -2.586471   -3.061372  -11.698940 H    2208 MOH     0.0372 ****
13551 C1     -2.103807   -4.027288  -11.846018 C    2208 MOH     0.1166 ****
13552 HC2    -2.876879   -4.781322  -11.993804 H    2208 MOH     0.0372 ****
13553 HC3    -1.539158   -4.269787  -10.946579 H    2208 MOH     0.0372 ****
13554 O1     -1.195635   -3.999527  -12.968904 O    2208 MOH    -0.6497 ****
13555 HO1    -0.484339   -3.395319  -12.739801 H    2208 MOH     0.4215 ****
13556 HC1    -7.893475  -11.303905  -20.358170 H    2209 MOH     0.0372 ****
13557 C1     -8.054556  -12.316769  -19.989767 C    2209 MOH     0.1166 ****
13558 HC2    -8.805688  -12.271862  -19.202050 H    2209 MOH     0.0372 ****
13559 HC3    -7.129641  -12.717261  -19.574696 H    2209 MOH     0.0372 ****
13560 O1     -8.506044  -13.163476  -21.046185 O    2209 MOH    -0.6497 ****
13561 HO1    -8.101321  -14.021614  -20.896278 H    2209 MOH     0.4215 ****
13562 HC1     1.112034  -17.186763  -12.744044 H    2210 MOH     0.0372 ****
13563 C1      0.945758  -17.099806  -11.669949 C    2210 MOH     0.1166 ****
13564 HC2     1.017926  -16.043668  -11.410441 H    2210 MOH     0.0372 ****
13565 HC3     1.732686  -17.653799  -11.157296 H    2210 MOH     0.0372 ****
13566 O1     -0.379839  -17.618690  -11.435896 O    2210 MOH    -0.6497 ****
13567 HO1    -0.691030  -17.270046  -10.597268 H    2210 MOH     0.4215 ****
13568 HC1   -15.514499   -8.616815   -9.545093 H    2211 MOH     0.0372 ****
13569 C1    -15.905942   -9.385955  -10.209773 C    2211 MOH     0.1166 ****
13570 HC2   -15.406534   -9.352070  -11.177803 H    2211 MOH     0.0372 ****
13571 HC3   -16.977504   -9.223472  -10.334224 H    2211 MOH     0.0372 ****
13572 O1    -15.765069  -10.652749   -9.624996 O    2211 MOH    -0.6497 ****
13573 HO1   -16.211360  -10.653158   -8.775761 H    2211 MOH     0.4215 ****
13574 HC1     0.705580  -11.048750  -13.925619 H    2212 MOH     0.0372 ****
13575 C1      0.688837  -12.055899  -14.343520 C    2212 MOH     0.1166 ****
13576 HC2     1.190554  -12.714403  -13.635706 H    2212 MOH     0.0372 ****
13577 HC3     1.240206  -12.084476  -15.283972 H    2212 MOH     0.0372 ****
13578 O1     -0.654080  -12.491500  -14.492719 O    2212 MOH    -0.6497 ****
13579 HO1    -1.145982  -12.230629  -13.709952 H    2212 MOH     0.4215 ****
13580 HC1    -5.159721   -7.257757  -14.793947 H    2213 MOH     0.0372 ****
13581 C1     -6.223201   -7.056898  -14.925469 C    2213 MOH     0.1166 ****
13582 HC2    -6.805170   -7.977907  -14.898598 H    2213 MOH     0.0372 ****
13583 HC3    -6.388323   -6.586188  -15.894912 H    2213 MOH     0.0372 ****
13584 O1     -6.673534   -6.166509  -13.946126 O    2213 MOH    -0.6497 ****
13585 HO1    -6.563260   -5.272037  -14.276345 H    2213 MOH     0.4215 ****
13586 HC1    -5.679337  -15.586022  -12.386955 H    2214 MOH     0.0372 ****
13587 C1     -5.865244  -15.000185  -13.287102 C    2214 MOH     0.1166 ****
13588 HC2    -5.847346  -15.623989  -14.180885 H    2214 MOH     0.0372 ****
13589 HC3    -5.117575  -14.214716  -13.395997 H    2214 MOH     0.0372 ****
13590 O1     -7.107701  -14.411900  -13.157702 O    2214 MOH    -0.6497 ****
13591 HO1    -7.406191  -14.301264  -14.063505 H    2214 MOH     0.4215 ****
13592 HC1    -4.494614  -12.010991  -10.967792 H    2215 MOH     0.0372 ****
13593 C1     -3.740595  -12.764618  -11.195480 C    2215 MOH     0.1166 ****
13594 HC2    -4.226723  -13.654191  -11.594996 H    2215 MOH     0.0372 ****
13595 HC3    -3.251579  -13.054066  -10.265635 H    2215 MOH     0.0372 ****
13596 O1     -2.806442  -12.222464  -12.140175 O    2215 MOH    -0.6497 ****
13597 HO1    -2.589935  -11.324726  -11.880667 H    2215 MOH     0.4215 ****
13598 HC1    -6.249181   -3.658231  -20.054114 H    2216 MOH     0.0372 ****
13599 C1     -6.486472   -3.944822  -19.028809 C    2216 MOH     0.1166 ****
13600 HC2    -5.724370   -4.607409  -18.619394 H    2216 MOH     0.0372 ****
13601 HC3    -7.439678   -4.473503  -19.047901 H    2216 MOH     0.0372 ****
13602 O1     -6.588086   -2.818465  -18.190888 O    2216 MOH    -0.6497 ****
13603 HO1    -5.814437   -2.262022  -18.310389 H    2216 MOH     0.4215 ****
13604 HC1    -8.558005  -18.640535  -13.702174 H    2217 MOH     0.0372 ****
13605 C1     -8.965037  -17.639919  -13.847131 C    2217 MOH     0.1166 ****
13606 HC2   -10.010618  -17.685643  -14.152601 H    2217 MOH     0.0372 ****
13607 HC3    -8.408471  -17.182272  -14.663839 H    2217 MOH     0.0372 ****
13608 O1     -8.810307  -16.816074  -12.690304 O    2217 MOH    -0.6497 ****
13609 HO1    -8.527406  -15.935890  -12.950519 H    2217 MOH     0.4215 ****
13610 HC1    -9.152099  -14.235128  -11.479737 H    2218 MOH     0.0372 ****
13611 C1     -9.063764  -13.249208  -11.023653 C    2218 MOH     0.1166 ****
13612 HC2    -9.664786  -13.217365  -10.115728 H    2218 MOH     0.0372 ****
13613 HC3    -9.415948  -12.513953  -11.747024 H    2218 MOH     0.0372 ****
13614 O1     -7.723734  -13.045493  -10.716062 O    2218 MOH    -0.6497 ****
13615 HO1    -7.238760  -13.512120  -11.399834 H    2218 MOH     0.4215 ****
13616 HC1    -7.188530  -19.072462  -10.665857 H    2219 MOH     0.0372 ****
13617 C1     -6.112349  -19.064297  -10.835563 C    2219 MOH     0.1166 ****
13618 HC2    -5.692038  -18.204118  -10.315839 H    2219 MOH     0.0372 ****
13619 HC3    -5.908545  -19.003876  -11.904708 H    2219 MOH     0.0372 ****
13620 O1     -5.518833  -20.209025  -10.334931 O    2219 MOH    -0.6497 ****
13621 HO1    -5.980714  -20.470304   -9.535901 H    2219 MOH     0.4215 ****
13622 HC1   -10.542358   -4.404509  -18.067144 H    2220 MOH     0.0372 ****
13623 C1    -11.124904   -5.277344  -17.771573 C    2220 MOH     0.1166 ****
13624 HC2   -10.788887   -6.192229  -18.258770 H    2220 MOH     0.0372 ****
13625 HC3   -12.145082   -5.097307  -18.108863 H    2220 MOH     0.0372 ****
13626 O1    -11.131833   -5.424313  -16.368674 O    2220 MOH    -0.6497 ****
13627 HO1   -11.318317   -4.562501  -15.987543 H    2220 MOH     0.4215 ****
13628 HC1   -11.373165   -7.419015  -13.796219 H    2221 MOH     0.0372 ****
13629 C1    -10.341440   -7.702747  -14.001987 C    2221 MOH     0.1166 ****
13630 HC2   -10.070663   -8.528633  -13.345085 H    2221 MOH     0.0372 ****
13631 HC3    -9.693076   -6.851958  -13.791269 H    2221 MOH     0.0372 ****
13632 O1    -10.203453   -8.021997  -15.363875 O    2221 MOH    -0.6497 ****
13633 HO1   -10.500211   -7.229179  -15.816423 H    2221 MOH     0.4215 ****
13634 HC1    -5.879100   -8.146513  -19.482772 H    2222 MOH     0.0372 ****
13635 C1     -5.864666   -7.439019  -20.312208 C    2222 MOH     0.1166 ****
13636 HC2    -6.855399   -7.007909  -20.453629 H    2222 MOH     0.0372 ****
13637 HC3    -5.525761   -7.932183  -21.222962 H    2222 MOH     0.0372 ****
13638 O1     -4.987671   -6.387371  -20.005324 O    2222 MOH    -0.6497 ****
13639 HO1    -4.791372   -6.380431  -19.065579 H    2222 MOH     0.4215 ****
13640 HC1     0.252360  -11.981189   -6.153102 H    2223 MOH     0.0372 ****
13641 C1      0.327415  -10.939340   -6.462814 C    2223 MOH     0.1166 ****
13642 HC2     1.366069  -10.714803   -6.706059 H    2223 MOH     0.0372 ****
13643 HC3    -0.034583  -10.337990   -5.627721 H    2223 MOH     0.0372 ****
13644 O1     -0.560549  -10.781756   -7.539031 O    2223 MOH    -0.6497 ****
13645 HO1    -0.193355  -11.302272   -8.256744 H    2223 MOH     0.4215 ****
13646 HC1   -10.022743  -15.893841   -5.604387 H    2224 MOH     0.0372 ****
13647 C1     -9.030278  -15.873020   -6.054814 C    2224 MOH     0.1166 ****
13648 HC2    -8.507198  -14.961810   -5.764900 H    2224 MOH     0.0372 ****
13649 HC3    -9.090322  -15.928542   -7.140930 H    2224 MOH     0.0372 ****
13650 O1     -8.295311  -16.937732   -5.606508 O    2224 MOH    -0.6497 ****
13651 HO1    -8.742180  -17.733816   -5.902079 H    2224 MOH     0.4215 ****
13652 HC1   -12.082729   -3.664355  -12.599087 H    2225 MOH     0.0372 ****
13653 C1    -12.322329   -4.297140  -11.744902 C    2225 MOH     0.1166 ****
13654 HC2   -13.367910   -4.172624  -11.464181 H    2225 MOH     0.0372 ****
13655 HC3   -11.690130   -3.989729  -10.911223 H    2225 MOH     0.0372 ****
13656 O1    -12.020375   -5.647217  -12.060979 O    2225 MOH    -0.6497 ****
13657 HO1   -12.482832   -5.920335  -12.856474 H    2225 MOH     0.4215 ****
13658 HC1   -14.676186  -11.602743  -21.698844 H    2226 MOH     0.0372 ****
13659 C1    -13.888103  -11.568450  -22.451206 C    2226 MOH     0.1166 ****
13660 HC2   -14.308414  -11.176940  -23.378223 H    2226 MOH     0.0372 ****
13661 HC3   -13.490308  -12.566209  -22.637882 H    2226 MOH     0.0372 ****
13662 O1    -12.881781  -10.668263  -22.101188 O    2226 MOH    -0.6497 ****
13663 HO1   -12.054438  -11.133258  -22.244731 H    2226 MOH     0.4215 ****
13664 HC1   -11.472469  -12.223281  -24.416963 H    2227 MOH     0.0372 ****
13665 C1    -11.042343  -12.793195  -23.592476 C    2227 MOH     0.1166 ****
13666 HC2   -10.266962  -13.437003  -24.007548 H    2227 MOH     0.0372 ****
13667 HC3   -11.787702  -13.441902  -23.132150 H    2227 MOH     0.0372 ****
13668 O1    -10.473076  -11.898723  -22.652731 O    2227 MOH    -0.6497 ****
13669 HO1   -10.058538  -12.438019  -21.976030 H    2227 MOH     0.4215 ****
13670 HC1    -0.409283   -9.185097  -17.471760 H    2228 MOH     0.0372 ****
13671 C1     -0.448543  -10.254707  -17.676821 C    2228 MOH     0.1166 ****
13672 HC2    -1.226811  -10.682960  -17.045375 H    2228 MOH     0.0372 ****
13673 HC3     0.520250  -10.691125  -17.432869 H    2228 MOH     0.0372 ****
13674 O1     -0.737218  -10.546605  -19.045073 O    2228 MOH    -0.6497 ****
13675 HO1    -0.307670  -11.361060  -19.317309 H    2228 MOH     0.4215 ****
13676 HC1     3.752257  -10.504963  -19.718238 H    2229 MOH     0.0372 ****
13677 C1      3.229755   -9.575790  -19.490550 C    2229 MOH     0.1166 ****
13678 HC2     2.197453   -9.788896  -19.211950 H    2229 MOH     0.0372 ****
13679 HC3     3.270170   -8.929533  -20.366655 H    2229 MOH     0.0372 ****
13680 O1      3.917379   -9.012408  -18.424233 O    2229 MOH    -0.6497 ****
13681 HO1     4.379837   -9.727659  -17.981584 H    2229 MOH     0.4215 ****
13682 HC1    -2.847434  -15.290858  -10.078251 H    2230 MOH     0.0372 ****
13683 C1     -2.596286  -15.811375   -9.154063 C    2230 MOH     0.1166 ****
13684 HC2    -3.263126  -16.665022   -9.033148 H    2230 MOH     0.0372 ****
13685 HC3    -2.719262  -15.141439   -8.303413 H    2230 MOH     0.0372 ****
13686 O1     -1.256256  -16.242077   -9.250937 O    2230 MOH    -0.6497 ****
13687 HO1    -1.066308  -16.797703   -8.492211 H    2230 MOH     0.4215 ****
13688 HC1    -1.374613   -8.360435  -20.099369 H    2231 MOH     0.0372 ****
13689 C1     -2.311653   -8.104464  -20.592222 C    2231 MOH     0.1166 ****
13690 HC2    -3.149965   -8.436369  -19.979161 H    2231 MOH     0.0372 ****
13691 HC3    -2.330128   -8.603343  -21.560959 H    2231 MOH     0.0372 ****
13692 O1     -2.342252   -6.720910  -20.809304 O    2231 MOH    -0.6497 ****
13693 HO1    -3.258507   -6.479635  -20.961332 H    2231 MOH     0.4215 ****
13694 HC1   -11.321204   -9.062622  -10.857483 H    2232 MOH     0.0372 ****
13695 C1    -12.330989   -8.663355  -10.765559 C    2232 MOH     0.1166 ****
13696 HC2   -12.943558   -9.404734  -10.252200 H    2232 MOH     0.0372 ****
13697 HC3   -12.732248   -8.471479  -11.761166 H    2232 MOH     0.0372 ****
13698 O1    -12.262862   -7.474536  -10.003298 O    2232 MOH    -0.6497 ****
13699 HO1   -11.928576   -6.781331  -10.577469 H    2232 MOH     0.4215 ****
13700 HC1    -4.704192  -13.070396  -21.807032 H    2233 MOH     0.0372 ****
13701 C1     -4.398774  -14.050600  -22.174020 C    2233 MOH     0.1166 ****
13702 HC2    -3.449610  -13.970991  -22.703643 H    2233 MOH     0.0372 ****
13703 HC3    -5.165495  -14.442927  -22.840822 H    2233 MOH     0.0372 ****
13704 O1     -4.245199  -14.971200  -21.099925 O    2233 MOH    -0.6497 ****
13705 HO1    -3.395916  -15.405168  -21.208112 H    2233 MOH     0.4215 ****
13706 HC1     1.136861  -15.718702  -15.134065 H    2234 MOH     0.0372 ****
13707 C1      2.008082  -15.215332  -15.553379 C    2234 MOH     0.1166 ****
13708 HC2     1.710169  -14.266155  -15.996735 H    2234 MOH     0.0372 ****
13709 HC3     2.446868  -15.826888  -16.342510 H    2234 MOH     0.0372 ****
13710 O1      2.976876  -14.940173  -14.567672 O    2234 MOH    -0.6497 ****
13711 HO1     3.407002  -15.778307  -14.384532 H    2234 MOH     0.4215 ****
13712 HC1    -7.418316   -9.394936  -26.881937 H    2235 MOH     0.0372 ****
13713 C1     -6.494555   -9.206734  -27.429945 C    2235 MOH     0.1166 ****
13714 HC2    -5.903926  -10.121618  -27.392468 H    2235 MOH     0.0372 ****
13715 HC3    -5.972053   -8.383297  -26.942748 H    2235 MOH     0.0372 ****
13716 O1     -6.767642   -8.854416  -28.784054 O    2235 MOH    -0.6497 ****
13717 HO1    -5.985910   -8.432287  -29.147507 H    2235 MOH     0.4215 ****
13718 HC1    -9.831640  -14.133066  -15.971279 H    2236 MOH     0.0372 ****
13719 C1     -8.974852  -14.391079  -16.594948 C    2236 MOH     0.1166 ****
13720 HC2    -8.788945  -13.597853  -17.318318 H    2236 MOH     0.0372 ****
13721 HC3    -9.220803  -15.294941  -17.152148 H    2236 MOH     0.0372 ****
13722 O1     -7.811491  -14.581731  -15.793796 O    2236 MOH    -0.6497 ****
13723 HO1    -7.115207  -14.929558  -16.355238 H    2236 MOH     0.4215 ****
13724 HC1    -3.776968  -14.473137  -16.787988 H    2237 MOH     0.0372 ****
13725 C1     -4.275221  -15.248809  -17.367815 C    2237 MOH     0.1166 ****
13726 HC2    -3.548337  -15.994270  -17.690256 H    2237 MOH     0.0372 ****
13727 HC3    -4.737678  -14.774832  -18.234021 H    2237 MOH     0.0372 ****
13728 O1     -5.250365  -15.879552  -16.570906 O    2237 MOH    -0.6497 ****
13729 HO1    -4.778670  -16.248609  -15.821373 H    2237 MOH     0.4215 ****
13730 HC1    -0.436419   -8.421264   -9.600954 H    2238 MOH     0.0372 ****
13731 C1     -1.058803   -7.526792   -9.610147 C    2238 MOH     0.1166 ****
13732 HC2    -0.614820   -6.739689   -9.000621 H    2238 MOH     0.0372 ****
13733 HC3    -2.030483   -7.804809   -9.200732 H    2238 MOH     0.0372 ****
13734 O1     -1.238358   -7.074045  -10.931729 O    2238 MOH    -0.6497 ****
13735 HO1    -0.380993   -6.798477  -11.264777 H    2238 MOH     0.4215 ****
13736 HC1    -8.695992   -2.453491  -15.419029 H    2239 MOH     0.0372 ****
13737 C1     -8.514704   -3.491666  -15.139722 C    2239 MOH     0.1166 ****
13738 HC2    -9.174038   -4.128942  -15.728742 H    2239 MOH     0.0372 ****
13739 HC3    -8.739293   -3.646392  -14.084012 H    2239 MOH     0.0372 ****
13740 O1     -7.184489   -3.887259  -15.380845 O    2239 MOH    -0.6497 ****
13741 HO1    -7.004933   -3.779073  -16.317762 H    2239 MOH     0.4215 ****
13742 HC1    -4.807538   -8.241635  -11.760459 H    2240 MOH     0.0372 ****
13743 C1     -4.353741   -7.362268  -11.303668 C    2240 MOH     0.1166 ****
13744 HC2    -3.516583   -7.045467  -11.925922 H    2240 MOH     0.0372 ****
13745 HC3    -4.050054   -7.611300  -10.286848 H    2240 MOH     0.0372 ****
13746 O1     -5.304059   -6.364509  -11.339023 O    2240 MOH    -0.6497 ****
13747 HO1    -5.631994   -6.308988  -12.239877 H    2240 MOH     0.4215 ****
13748 HC1    -1.185242  -12.182047   -9.917738 H    2241 MOH     0.0372 ****
13749 C1     -0.362518  -12.872804  -10.103000 C    2241 MOH     0.1166 ****
13750 HC2    -0.087122  -12.751554  -11.150225 H    2241 MOH     0.0372 ****
13751 HC3    -0.670823  -13.912612   -9.996227 H    2241 MOH     0.0372 ****
13752 O1      0.727519  -12.562127   -9.218410 O    2241 MOH    -0.6497 ****
13753 HO1     1.338356  -13.302689   -9.205682 H    2241 MOH     0.4215 ****
13754 HC1    -5.438004  -10.840544  -19.112955 H    2242 MOH     0.0372 ****
13755 C1     -4.510780  -11.017315  -18.569190 C    2242 MOH     0.1166 ****
13756 HC2    -4.576598  -11.941997  -17.995726 H    2242 MOH     0.0372 ****
13757 HC3    -4.287345  -10.180814  -17.906631 H    2242 MOH     0.0372 ****
13758 O1     -3.507345  -11.119377  -19.499742 O    2242 MOH    -0.6497 ****
13759 HO1    -2.697323  -10.778490  -19.112955 H    2242 MOH     0.4215 ****
13760 HC1    -7.534940  -10.696432  -24.385850 H    2243 MOH     0.0372 ****
13761 C1     -7.254926  -11.604784  -23.851985 C    2243 MOH     0.1166 ****
13762 HC2    -6.446635  -12.100398  -24.389386 H    2243 MOH     0.0372 ****
13763 HC3    -8.085733  -12.310646  -23.828650 H    2243 MOH     0.0372 ****
13764 O1     -6.817294  -11.343506  -22.532523 O    2243 MOH    -0.6497 ****
13765 HO1    -7.164859  -12.048142  -21.980980 H    2243 MOH     0.4215 ****
13766 HC1     3.648912  -11.224297  -10.982641 H    2244 MOH     0.0372 ****
13767 C1      2.817527  -10.540889  -11.152347 C    2244 MOH     0.1166 ****
13768 HC2     1.895499  -11.000985  -10.795258 H    2244 MOH     0.0372 ****
13769 HC3     2.747090  -10.352687  -12.223613 H    2244 MOH     0.0372 ****
13770 O1      3.145462   -9.320227  -10.500394 O    2244 MOH    -0.6497 ****
13771 HO1     3.758608   -9.517411   -9.788338 H    2244 MOH     0.4215 ****
13772 HC1    -3.844518   -8.994853   -2.499481 H    2245 MOH     0.0372 ****
13773 C1     -4.735946   -8.368192   -2.531301 C    2245 MOH     0.1166 ****
13774 HC2    -5.624489   -8.998935   -2.571606 H    2245 MOH     0.0372 ****
13775 HC3    -4.726709   -7.750104   -3.429326 H    2245 MOH     0.0372 ****
13776 O1     -4.725554   -7.520668   -1.409829 O    2245 MOH    -0.6497 ****
13777 HO1    -3.969803   -6.940548   -1.526502 H    2245 MOH     0.4215 ****
13778 HC1     3.408734   -8.397994  -14.960117 H    2246 MOH     0.0372 ****
13779 C1      2.398948   -8.718877  -15.216089 C    2246 MOH     0.1166 ****
13780 HC2     1.701509   -8.288175  -14.496962 H    2246 MOH     0.0372 ****
13781 HC3     2.317542   -9.805226  -15.181441 H    2246 MOH     0.0372 ****
13782 O1      2.043878   -8.259598  -16.488174 O    2246 MOH    -0.6497 ****
13783 HO1     2.642590   -8.667030  -17.117499 H    2246 MOH     0.4215 ****
13784 HC1    -3.100890  -21.183922  -12.545347 H    2247 MOH     0.0372 ****
13785 C1     -2.519499  -20.426622  -12.018552 C    2247 MOH     0.1166 ****
13786 HC2    -1.465834  -20.670754  -12.155731 H    2247 MOH     0.0372 ****
13787 HC3    -2.749284  -20.416007  -10.953650 H    2247 MOH     0.0372 ****
13788 O1     -2.647670  -19.166359  -12.570803 O    2247 MOH    -0.6497 ****
13789 HO1    -1.849195  -18.689933  -12.329679 H    2247 MOH     0.4215 ****
13790 HC1    -7.945437   -9.826863   -7.463371 H    2248 MOH     0.0372 ****
13791 C1     -7.600181  -10.669896   -8.060876 C    2248 MOH     0.1166 ****
13792 HC2    -6.860018  -11.201843   -7.461956 H    2248 MOH     0.0372 ****
13793 HC3    -7.158508  -10.284101   -8.979408 H    2248 MOH     0.0372 ****
13794 O1     -8.652691  -11.587638   -8.394630 O    2248 MOH    -0.6497 ****
13795 HO1    -8.373830  -12.100806   -9.156184 H    2248 MOH     0.4215 ****
13796 HC1    -0.788025   -1.289575  -13.685910 H    2249 MOH     0.0372 ****
13797 C1     -1.280505   -0.853157  -14.554945 C    2249 MOH     0.1166 ****
13798 HC2    -2.222741   -0.365709  -14.304629 H    2249 MOH     0.0372 ****
13799 HC3    -1.532807   -1.687617  -15.209725 H    2249 MOH     0.0372 ****
13800 O1     -0.442770    0.071933  -15.254980 O    2249 MOH    -0.6497 ****
13801 HO1    -0.983747    0.771671  -15.626918 H    2249 MOH     0.4215 ****
13802 HC1    -2.880343  -21.506438  -17.208009 H    2250 MOH     0.0372 ****
13803 C1     -2.913252  -20.421314  -17.307004 C    2250 MOH     0.1166 ****
13804 HC2    -2.468115  -19.952237  -16.429485 H    2250 MOH     0.0372 ****
13805 HC3    -3.950750  -20.095532  -17.381957 H    2250 MOH     0.0372 ****
13806 O1     -2.227359  -20.044093  -18.472316 O    2250 MOH    -0.6497 ****
13807 HO1    -2.125746  -19.090833  -18.432011 H    2250 MOH     0.4215 ****
13808 HC1     5.553013  -12.689500  -16.025019 H    2251 MOH     0.0372 ****
13809 C1      4.647150  -12.364943  -16.536258 C    2251 MOH     0.1166 ****
13810 HC2     3.761495  -12.757678  -16.037040 H    2251 MOH     0.0372 ****
13811 HC3     4.654656  -12.713178  -17.569341 H    2251 MOH     0.0372 ****
13812 O1      4.554197  -10.972816  -16.522116 O    2251 MOH    -0.6497 ****
13813 HO1     4.824397  -10.687450  -15.646010 H    2251 MOH     0.4215 ****
13814 HC1    -1.912704   -8.125692  -14.040171 H    2252 MOH     0.0372 ****
13815 C1     -1.249328   -8.947496  -13.770763 C    2252 MOH     0.1166 ****
13816 HC2    -0.233192   -8.561293  -13.692981 H    2252 MOH     0.0372 ****
13817 HC3    -1.263185   -9.730108  -14.529489 H    2252 MOH     0.0372 ****
13818 O1     -1.627493   -9.374524  -12.483829 O    2252 MOH    -0.6497 ****
13819 HO1    -1.573799   -8.605384  -11.912486 H    2252 MOH     0.4215 ****
13820 HC1     1.867209   -1.926442   -9.936830 H    2253 MOH     0.0372 ****
13821 C1      1.527727   -2.672312  -10.655958 C    2253 MOH     0.1166 ****
13822 HC2     1.021390   -3.509629  -10.174418 H    2253 MOH     0.0372 ****
13823 HC3     2.414537   -3.069129  -11.150932 H    2253 MOH     0.0372 ****
13824 O1      0.686527   -2.051774  -11.610552 O    2253 MOH    -0.6497 ****
13825 HO1     1.215958   -1.366734  -12.026331 H    2253 MOH     0.4215 ****
13826 HC1    -7.426399   -9.162643  -18.917793 H    2254 MOH     0.0372 ****
13827 C1     -8.056865   -9.476178  -18.086236 C    2254 MOH     0.1166 ****
13828 HC2    -9.033164   -9.788896  -18.456760 H    2254 MOH     0.0372 ****
13829 HC3    -8.227183   -8.649067  -17.396100 H    2254 MOH     0.0372 ****
13830 O1     -7.454689  -10.530275  -17.390443 O    2254 MOH    -0.6497 ****
13831 HO1    -8.105363  -10.884634  -16.780917 H    2254 MOH     0.4215 ****
13832 HC1    -4.764237   -4.430229  -15.773997 H    2255 MOH     0.0372 ****
13833 C1     -4.107789   -4.154661  -14.948803 C    2255 MOH     0.1166 ****
13834 HC2    -4.654540   -4.190587  -14.005523 H    2255 MOH     0.0372 ****
13835 HC3    -3.761379   -3.131999  -15.099417 H    2255 MOH     0.0372 ****
13836 O1     -2.988884   -5.026680  -14.883749 O    2255 MOH    -0.6497 ****
13837 HO1    -2.383821   -4.700081  -14.213412 H    2255 MOH     0.4215 ****
13838 HC1   -15.426164  -14.498040  -15.720964 H    2256 MOH     0.0372 ****
13839 C1    -14.782418  -13.713795  -16.117651 C    2256 MOH     0.1166 ****
13840 HC2   -14.748355  -12.912404  -15.380138 H    2256 MOH     0.0372 ****
13841 HC3   -15.181367  -13.273703  -17.032647 H    2256 MOH     0.0372 ****
13842 O1    -13.470679  -14.178382  -16.348167 O    2256 MOH    -0.6497 ****
13843 HO1   -13.028428  -13.391279  -16.673437 H    2256 MOH     0.4215 ****
13844 HC1    -6.150455   -2.791112   -9.214167 H    2257 MOH     0.0372 ****
13845 C1     -5.568486   -2.548612  -10.103707 C    2257 MOH     0.1166 ****
13846 HC2    -5.604859   -3.370416  -10.818592 H    2257 MOH     0.0372 ****
13847 HC3    -4.541379   -2.405317   -9.766417 H    2257 MOH     0.0372 ****
13848 O1     -6.034407   -1.304272  -10.635452 O    2257 MOH    -0.6497 ****
13849 HO1    -5.618715   -0.626988  -10.097343 H    2257 MOH     0.4215 ****
13850 HC1    -8.656155   -7.357369  -11.542670 H    2258 MOH     0.0372 ****
13851 C1     -8.493342   -7.581497  -10.488373 C    2258 MOH     0.1166 ****
13852 HC2    -7.925807   -8.508221  -10.396450 H    2258 MOH     0.0372 ****
13853 HC3    -9.477147   -7.699073  -10.034411 H    2258 MOH     0.0372 ****
13854 O1     -7.800522   -6.504947   -9.896525 O    2258 MOH    -0.6497 ****
13855 HO1    -6.962209   -6.414316  -10.354730 H    2258 MOH     0.4215 ****
13856 HC1   -10.720759  -13.423530   -6.783134 H    2259 MOH     0.0372 ****
13857 C1    -11.113935  -12.988746   -5.864602 C    2259 MOH     0.1166 ****
13858 HC2   -11.298110  -11.924034   -6.006024 H    2259 MOH     0.0372 ****
13859 HC3   -10.414764  -13.132858   -5.040823 H    2259 MOH     0.0372 ****
13860 O1    -12.278450  -13.649700   -5.535798 O    2259 MOH    -0.6497 ****
13861 HO1   -12.702803  -13.200219   -4.801114 H    2259 MOH     0.4215 ****
13862 HC1    -8.933860   -7.462289  -20.878601 H    2260 MOH     0.0372 ****
13863 C1     -9.067228   -8.484951  -21.231447 C    2260 MOH     0.1166 ****
13864 HC2   -10.066044   -8.562518  -21.659954 H    2260 MOH     0.0372 ****
13865 HC3    -8.993905   -9.201835  -20.414031 H    2260 MOH     0.0372 ****
13866 O1     -8.146932   -8.762152  -22.243317 O    2260 MOH    -0.6497 ****
13867 HO1    -8.030884   -9.710104  -22.335240 H    2260 MOH     0.4215 ****
13868 HC1    -6.746857  -16.736874  -21.920876 H    2261 MOH     0.0372 ****
13869 C1     -7.483556  -16.391087  -21.196091 C    2261 MOH     0.1166 ****
13870 HC2    -7.754334  -17.199011  -20.515148 H    2261 MOH     0.0372 ****
13871 HC3    -8.392306  -16.091433  -21.716522 H    2261 MOH     0.0372 ****
13872 O1     -7.043615  -15.309638  -20.402011 O    2261 MOH    -0.6497 ****
13873 HO1    -6.096184  -15.378223  -20.266246 H    2261 MOH     0.4215 ****
13874 HC1    -7.909641  -18.987546  -16.158663 H    2262 MOH     0.0372 ****
13875 C1     -6.874452  -18.683401  -16.314933 C    2262 MOH     0.1166 ****
13876 HC2    -6.285554  -19.586038  -16.482518 H    2262 MOH     0.0372 ****
13877 HC3    -6.501483  -18.126551  -15.456506 H    2262 MOH     0.0372 ****
13878 O1     -6.876761  -17.951821  -17.491559 O    2262 MOH    -0.6497 ****
13879 HO1    -6.239366  -17.242693  -17.381957 H    2262 MOH     0.4215 ****
13880 HC1     5.152909  -13.795445  -11.587924 H    2263 MOH     0.0372 ****
13881 C1      5.536847  -13.198586  -12.415239 C    2263 MOH     0.1166 ****
13882 HC2     6.224471  -13.815857  -12.993653 H    2263 MOH     0.0372 ****
13883 HC3     6.037987  -12.336774  -11.973298 H    2263 MOH     0.0372 ****
13884 O1      4.471636  -12.758902  -13.202249 O    2263 MOH    -0.6497 ****
13885 HO1     3.942206  -13.514978  -13.463879 H    2263 MOH     0.4215 ****
13886 HC1   -16.431908   -5.491674  -15.469941 H    2264 MOH     0.0372 ****
13887 C1    -16.598185   -4.421247  -15.351147 C    2264 MOH     0.1166 ****
13888 HC2   -16.244847   -4.100364  -14.371097 H    2264 MOH     0.0372 ****
13889 HC3   -17.665128   -4.208142  -15.423272 H    2264 MOH     0.0372 ****
13890 O1    -15.911138   -3.706813  -16.360895 O    2264 MOH    -0.6497 ****
13891 HO1   -16.001782   -4.236719  -17.155683 H    2264 MOH     0.4215 ****
13892 HC1     5.044945   -8.338798  -12.852231 H    2265 MOH     0.0372 ****
13893 C1      5.685226   -9.214082  -12.743337 C    2265 MOH     0.1166 ****
13894 HC2     5.535115   -9.614982  -11.740659 H    2265 MOH     0.0372 ****
13895 HC3     6.723879   -8.901364  -12.849403 H    2265 MOH     0.0372 ****
13896 O1      5.305907  -10.155911  -13.746721 O    2265 MOH    -0.6497 ****
13897 HO1     5.234893  -11.029154  -13.354277 H    2265 MOH     0.4215 ****
13898 HC1   -13.953921   -5.940748  -15.793796 H    2266 MOH     0.0372 ****
13899 C1    -13.686608   -6.945447  -15.464991 C    2266 MOH     0.1166 ****
13900 HC2   -12.742063   -7.234895  -15.925318 H    2266 MOH     0.0372 ****
13901 HC3   -14.449287   -7.659065  -15.774704 H    2266 MOH     0.0372 ****
13902 O1    -13.519176   -6.937690  -14.035928 O    2266 MOH    -0.6497 ****
13903 HO1   -14.347674   -6.749896  -13.589037 H    2266 MOH     0.4215 ****
13904 HC1     3.180680   -6.125276   -8.431400 H    2267 MOH     0.0372 ****
13905 C1      4.039200   -5.763568   -8.997085 C    2267 MOH     0.1166 ****
13906 HC2     3.691058   -5.244276   -9.889454 H    2267 MOH     0.0372 ****
13907 HC3     4.668512   -6.604151   -9.290534 H    2267 MOH     0.0372 ****
13908 O1      4.788601   -4.873995   -8.201590 O    2267 MOH    -0.6497 ****
13909 HO1     4.956033   -5.292449   -7.353769 H    2267 MOH     0.4215 ****
13910 HC1     3.979733   -4.804184  -18.363422 H    2268 MOH     0.0372 ****
13911 C1      3.532864   -4.390221  -19.267104 C    2268 MOH     0.1166 ****
13912 HC2     2.505181   -4.071379  -19.095277 H    2268 MOH     0.0372 ****
13913 HC3     3.563464   -5.162626  -20.036436 H    2268 MOH     0.0372 ****
13914 O1      4.343464   -3.325917  -19.655306 O    2268 MOH    -0.6497 ****
13915 HO1     4.525329   -2.779681  -18.887388 H    2268 MOH     0.4215 ****
13916 HC1    -2.794317   -7.056490  -23.769253 H    2269 MOH     0.0372 ****
13917 C1     -3.718655   -6.541281  -24.030883 C    2269 MOH     0.1166 ****
13918 HC2    -4.431683   -6.588229  -23.207103 H    2269 MOH     0.0372 ****
13919 HC3    -4.154555   -6.987496  -24.923958 H    2269 MOH     0.0372 ****
13920 O1     -3.480787   -5.192020  -24.310190 O    2269 MOH    -0.6497 ****
13921 HO1    -2.976183   -5.161810  -25.126191 H    2269 MOH     0.4215 ****
13922 HC1   -11.072366    0.136845  -13.717023 H    2270 MOH     0.0372 ****
13923 C1    -11.443024   -0.259973  -12.772328 C    2270 MOH     0.1166 ****
13924 HC2   -10.588546   -0.382855  -12.106941 H    2270 MOH     0.0372 ****
13925 HC3   -11.914720   -1.235686  -12.888294 H    2270 MOH     0.0372 ****
13926 O1    -12.298080    0.675324  -12.210179 O    2270 MOH    -0.6497 ****
13927 HO1   -12.113328    0.676957  -11.268312 H    2270 MOH     0.4215 ****
13928 HC1   -11.188413  -12.917711   -1.565393 H    2271 MOH     0.0372 ****
13929 C1    -10.294098  -13.360252   -1.125573 C    2271 MOH     0.1166 ****
13930 HC2   -10.228280  -13.087134   -0.072691 H    2271 MOH     0.0372 ****
13931 HC3    -9.403823  -12.990379   -1.634689 H    2271 MOH     0.0372 ****
13932 O1    -10.345482  -14.772791   -1.241538 O    2271 MOH    -0.6497 ****
13933 HO1    -9.440197  -15.081018   -1.153150 H    2271 MOH     0.4215 ****
13934 HC1   -12.534794  -17.276170  -23.229731 H    2272 MOH     0.0372 ****
13935 C1    -12.020952  -16.967126  -22.319684 C    2272 MOH     0.1166 ****
13936 HC2   -10.937843  -16.993254  -22.435650 H    2272 MOH     0.0372 ****
13937 HC3   -12.324061  -17.606443  -21.489541 H    2272 MOH     0.0372 ****
13938 O1    -12.460316  -15.709721  -22.036841 O    2272 MOH    -0.6497 ****
13939 HO1   -12.792292  -15.347605  -22.862035 H    2272 MOH     0.4215 ****
13940 HC1   -11.784239   -4.538006   -7.978852 H    2273 MOH     0.0372 ****
13941 C1    -11.850634   -4.798469   -6.922434 C    2273 MOH     0.1166 ****
13942 HC2   -11.742669   -5.876653   -6.798690 H    2273 MOH     0.0372 ****
13943 HC3   -12.834439   -4.483709   -6.573830 H    2273 MOH     0.0372 ****
13944 O1    -10.866829   -4.079544   -6.199064 O    2273 MOH    -0.6497 ****
13945 HO1   -10.044105   -4.188546   -6.682018 H    2273 MOH     0.4215 ****
13946 HC1    -7.457576   -9.174890   -3.763081 H    2274 MOH     0.0372 ****
13947 C1     -7.868072  -10.131416   -3.439933 C    2274 MOH     0.1166 ****
13948 HC2    -7.089226  -10.894024   -3.418720 H    2274 MOH     0.0372 ****
13949 HC3    -8.653268  -10.410250   -4.142090 H    2274 MOH     0.0372 ****
13950 O1     -8.463897   -9.986896   -2.184111 O    2274 MOH    -0.6497 ****
13951 HO1    -7.843246   -9.537823   -1.605698 H    2274 MOH     0.4215 ****
13952 HC1   -19.158156   -7.854207  -17.395393 H    2275 MOH     0.0372 ****
13953 C1    -18.599281   -7.221831  -16.705964 C    2275 MOH     0.1166 ****
13954 HC2   -18.554248   -6.221214  -17.136592 H    2275 MOH     0.0372 ****
13955 HC3   -17.586031   -7.616199  -16.625353 H    2275 MOH     0.0372 ****
13956 O1    -19.264389   -7.209583  -15.417615 O    2275 MOH    -0.6497 ****
13957 HO1   -18.797312   -7.827671  -14.851930 H    2275 MOH     0.4215 ****
13958 HC1   -10.683231  -14.067338  -19.496207 H    2276 MOH     0.0372 ****
13959 C1    -11.565423  -13.483951  -19.235284 C    2276 MOH     0.1166 ****
13960 HC2   -11.261159  -12.485376  -18.924157 H    2276 MOH     0.0372 ****
13961 HC3   -12.100626  -13.973849  -18.422112 H    2276 MOH     0.0372 ****
13962 O1    -12.386415  -13.428838  -20.402718 O    2276 MOH    -0.6497 ****
13963 HO1   -12.477059  -14.317594  -20.755564 H    2276 MOH     0.4215 ****
13964 HC1    -3.146501  -23.059823  -14.045120 H    2277 MOH     0.0372 ****
13965 C1     -2.308766  -22.831612  -14.704851 C    2277 MOH     0.1166 ****
13966 HC2    -1.951386  -21.830179  -14.469385 H    2277 MOH     0.0372 ****
13967 HC3    -2.659217  -22.876520  -15.735813 H    2277 MOH     0.0372 ****
13968 O1     -1.227966  -23.773441  -14.500497 O    2277 MOH    -0.6497 ****
13969 HO1    -0.394850  -23.385197  -14.778390 H    2277 MOH     0.4215 ****
13970 HC1    -8.952913  -12.204501  -14.429787 H    2278 MOH     0.0372 ****
13971 C1     -9.264682  -11.161018  -14.465142 C    2278 MOH     0.1166 ****
13972 HC2    -8.458701  -10.503739  -14.137044 H    2278 MOH     0.0372 ****
13973 HC3   -10.107613  -11.037727  -13.786320 H    2278 MOH     0.0372 ****
13974 O1     -9.717902  -10.814824  -15.759147 O    2278 MOH    -0.6497 ****
13975 HO1    -9.929212   -9.879119  -15.729449 H    2278 MOH     0.4215 ****
13976 HC1   -13.227614  -13.033653  -13.613078 H    2279 MOH     0.0372 ****
13977 C1    -12.456274  -13.326776  -12.900315 C    2279 MOH     0.1166 ****
13978 HC2   -11.558495  -13.583156  -13.463172 H    2279 MOH     0.0372 ****
13979 HC3   -12.786519  -14.215124  -12.361499 H    2279 MOH     0.0372 ****
13980 O1    -12.195889  -12.249408  -11.991683 O    2279 MOH    -0.6497 ****
13981 HO1   -12.862151  -12.274312  -11.300839 H    2279 MOH     0.4215 ****
13982 HC1   -13.356941  -12.422914   -7.729950 H    2280 MOH     0.0372 ****
13983 C1    -12.873698  -12.573558   -8.695151 C    2280 MOH     0.1166 ****
13984 HC2   -12.418169  -13.563151   -8.714950 H    2280 MOH     0.0372 ****
13985 HC3   -12.113328  -11.804418   -8.833744 H    2280 MOH     0.0372 ****
13986 O1    -13.904846  -12.524159   -9.681565 O    2280 MOH    -0.6497 ****
13987 HO1   -14.417533  -11.723176   -9.551457 H    2280 MOH     0.4215 ****
13988 HC1   -17.657045  -10.995270  -14.063505 H    2281 MOH     0.0372 ****
13989 C1    -17.069303  -10.079569  -14.001987 C    2281 MOH     0.1166 ****
13990 HC2   -16.603381   -9.868913  -14.965067 H    2281 MOH     0.0372 ****
13991 HC3   -16.280642  -10.228171  -13.265182 H    2281 MOH     0.0372 ****
13992 O1    -17.851035   -8.954845  -13.626513 O    2281 MOH    -0.6497 ****
13993 HO1   -18.251139   -9.118960  -12.769500 H    2281 MOH     0.4215 ****
13994 HC1    -3.839899   -0.322026  -11.584389 H    2282 MOH     0.0372 ****
13995 C1     -2.894199    0.020902  -11.164368 C    2282 MOH     0.1166 ****
13996 HC2    -3.007937    0.995391  -10.688485 H    2282 MOH     0.0372 ****
13997 HC3    -2.164428    0.134395  -11.966227 H    2282 MOH     0.0372 ****
13998 O1     -2.452526   -0.901331  -10.192096 O    2282 MOH    -0.6497 ****
13999 HO1    -1.621142   -1.289575  -10.474231 H    2282 MOH     0.4215 ****
14000 HC1    -3.921882   -8.387788  -16.513630 H    2283 MOH     0.0372 ****
14001 C1     -3.140150   -7.714586  -16.865062 C    2283 MOH     0.1166 ****
14002 HC2    -2.580698   -8.149371  -17.693084 H    2283 MOH     0.0372 ****
14003 HC3    -2.454835   -7.509646  -16.043404 H    2283 MOH     0.0372 ****
14004 O1     -3.714036   -6.515153  -17.310540 O    2283 MOH    -0.6497 ****
14005 HO1    -3.518892   -5.871754  -16.624646 H    2283 MOH     0.4215 ****
14006 HC1     0.977974   14.353112  -16.242101 H    2284 MOH     0.0372 ****
14007 C1     -0.058370   14.491916  -15.935217 C    2284 MOH     0.1166 ****
14008 HC2    -0.621864   14.856074  -16.793645 H    2284 MOH     0.0372 ****
14009 HC3    -0.128229   15.241868  -15.146793 H    2284 MOH     0.0372 ****
14010 O1     -0.583759   13.249208  -15.518024 O    2284 MOH    -0.6497 ****
14011 HO1    -1.346438   13.401485  -14.955874 H    2284 MOH     0.4215 ****
14012 HC1    -4.523597    3.812141  -12.150782 H    2285 MOH     0.0372 ****
14013 C1     -5.324382    3.418181  -11.524992 C    2285 MOH     0.1166 ****
14014 HC2    -5.890185    2.687825  -12.104113 H    2285 MOH     0.0372 ****
14015 HC3    -5.996995    4.195078  -11.163661 H    2285 MOH     0.0372 ****
14016 O1     -4.827283    2.677211  -10.480595 O    2285 MOH    -0.6497 ****
14017 HO1    -4.282842    3.273253   -9.961579 H    2285 MOH     0.4215 ****
14018 HC1     7.585748    5.051174   -7.644390 H    2286 MOH     0.0372 ****
14019 C1      7.646947    5.830929   -6.886371 C    2286 MOH     0.1166 ****
14020 HC2     8.007213    5.385122   -5.958647 H    2286 MOH     0.0372 ****
14021 HC3     6.653904    6.256323   -6.740708 H    2286 MOH     0.0372 ****
14022 O1      8.518168    6.853591   -7.314171 O    2286 MOH    -0.6497 ****
14023 HO1     9.404978    6.493516   -7.380639 H    2286 MOH     0.4215 ****
14024 HC1    13.844224    9.800327  -13.424988 H    2287 MOH     0.0372 ****
14025 C1     14.277815    9.993428  -12.444231 C    2287 MOH     0.1166 ****
14026 HC2    14.563603   11.044259  -12.393319 H    2287 MOH     0.0372 ****
14027 HC3    15.165779    9.374116  -12.317659 H    2287 MOH     0.0372 ****
14028 O1     13.323455    9.678669  -11.436604 O    2287 MOH    -0.6497 ****
14029 HO1    13.524372    8.787054  -11.143861 H    2287 MOH     0.4215 ****
14030 HC1     7.207006   -1.053362  -21.057498 H    2288 MOH     0.0372 ****
14031 C1      7.019944   -2.039282  -20.632527 C    2288 MOH     0.1166 ****
14032 HC2     6.627924   -1.944568  -19.619950 H    2288 MOH     0.0372 ****
14033 HC3     7.977191   -2.555716  -20.563938 H    2288 MOH     0.0372 ****
14034 O1      6.178745   -2.843123  -21.481763 O    2288 MOH    -0.6497 ****
14035 HO1     5.462831   -3.189317  -20.944361 H    2288 MOH     0.4215 ****
14036 HC1     9.837414   -0.581427  -14.420594 H    2289 MOH     0.0372 ****
14037 C1      8.988709   -0.146643  -13.892385 C    2289 MOH     0.1166 ****
14038 HC2     8.852454    0.880510  -14.230382 H    2289 MOH     0.0372 ****
14039 HC3     9.153254   -0.158890  -12.814755 H    2289 MOH     0.0372 ****
14040 O1      7.823039   -0.844747  -14.226140 O    2289 MOH    -0.6497 ****
14041 HO1     7.850174   -1.645322  -13.696517 H    2289 MOH     0.4215 ****
14042 HC1    17.913967    8.188971  -18.040274 H    2290 MOH     0.0372 ****
14043 C1     17.719400    8.930350  -17.265285 C    2290 MOH     0.1166 ****
14044 HC2    16.655343    8.972399  -17.032647 H    2290 MOH     0.0372 ****
14045 HC3    18.020776    9.918719  -17.612474 H    2290 MOH     0.0372 ****
14046 O1     18.389126    8.600077  -16.054011 O    2290 MOH    -0.6497 ****
14047 HO1    18.171465    7.705605  -15.781775 H    2290 MOH     0.4215 ****
14048 HC1     2.027597   12.901789  -11.573075 H    2291 MOH     0.0372 ****
14049 C1      2.631505   13.453332  -10.852534 C    2291 MOH     0.1166 ****
14050 HC2     3.443259   12.818098  -10.498980 H    2291 MOH     0.0372 ****
14051 HC3     1.983141   13.739106  -10.023804 H    2291 MOH     0.0372 ****
14052 O1      3.136109   14.577240  -11.508022 O    2291 MOH    -0.6497 ****
14053 HO1     3.949018   14.838927  -11.068908 H    2291 MOH     0.4215 ****
14054 HC1     8.731788    6.494332  -24.034418 H    2292 MOH     0.0372 ****
14055 C1      7.939663    5.961976  -23.508331 C    2292 MOH     0.1166 ****
14056 HC2     7.966799    6.219581  -22.449792 H    2292 MOH     0.0372 ****
14057 HC3     8.105363    4.894407  -23.650459 H    2292 MOH     0.0372 ****
14058 O1      6.711062    6.377573  -24.064117 O    2292 MOH    -0.6497 ****
14059 HO1     6.016510    6.018723  -23.506209 H    2292 MOH     0.4215 ****
14060 HC1     9.428072   14.385363  -25.153768 H    2293 MOH     0.0372 ****
14061 C1      9.965586   14.727884  -26.038359 C    2293 MOH     0.1166 ****
14062 HC2     9.637651   14.153886  -26.905272 H    2293 MOH     0.0372 ****
14063 HC3    11.025023   14.543355  -25.860168 H    2293 MOH     0.0372 ****
14064 O1      9.705201   16.108579  -26.307059 O    2293 MOH    -0.6497 ****
14065 HO1     9.964431   16.313520  -27.207913 H    2293 MOH     0.4215 ****
14066 HC1     0.089432    7.580273   -7.188306 H    2294 MOH     0.0372 ****
14067 C1     -0.930746    7.287559   -6.940112 C    2294 MOH     0.1166 ****
14068 HC2    -1.091827    7.345122   -5.864602 H    2294 MOH     0.0372 ****
14069 HC3    -1.139170    6.265305   -7.256896 H    2294 MOH     0.0372 ****
14070 O1     -1.816979    8.179989   -7.541152 O    2294 MOH    -0.6497 ****
14071 HO1    -1.365491    8.556394   -8.300585 H    2294 MOH     0.4215 ****
14072 HC1    12.796911   12.553145  -16.511509 H    2295 MOH     0.0372 ****
14073 C1     12.845409   11.465571  -16.562421 C    2295 MOH     0.1166 ****
14074 HC2    12.467244   11.110804  -17.520550 H    2295 MOH     0.0372 ****
14075 HC3    12.238613   11.018948  -15.774704 H    2295 MOH     0.0372 ****
14076 O1     14.181974   11.031195  -16.488882 O    2295 MOH    -0.6497 ****
14077 HO1    14.149643   10.071812  -16.467668 H    2295 MOH     0.4215 ****
14078 HC1     3.886664   11.528442  -22.084925 H    2296 MOH     0.0372 ****
14079 C1      3.932275   11.073653  -23.074874 C    2296 MOH     0.1166 ****
14080 HC2     4.849685   10.494757  -23.183769 H    2296 MOH     0.0372 ****
14081 HC3     3.921883   11.851366  -23.837842 H    2296 MOH     0.0372 ****
14082 O1      2.828959   10.237152  -23.291956 O    2296 MOH    -0.6497 ****
14083 HO1     3.088189    9.349621  -23.034569 H    2296 MOH     0.4215 ****
14084 HC1    11.993817    6.971574  -23.589648 H    2297 MOH     0.0372 ****
14085 C1     12.192425    7.932182  -23.115179 C    2297 MOH     0.1166 ****
14086 HC2    13.257059    8.149371  -23.198618 H    2297 MOH     0.0372 ****
14087 HC3    11.963217    7.897073  -22.050276 H    2297 MOH     0.0372 ****
14088 O1     11.399146    8.927900  -23.766425 O    2297 MOH    -0.6497 ****
14089 HO1    11.446489    9.703980  -23.202860 H    2297 MOH     0.4215 ****
14090 HC1    10.835075    1.504313  -18.577675 H    2298 MOH     0.0372 ****
14091 C1     10.882418    2.227729  -17.763088 C    2298 MOH     0.1166 ****
14092 HC2    10.089138    2.955228  -17.934208 H    2298 MOH     0.0372 ****
14093 HC3    11.843129    2.741306  -17.809757 H    2298 MOH     0.0372 ****
14094 O1     10.697088    1.585963  -16.469083 O    2298 MOH    -0.6497 ****
14095 HO1    10.505408    2.261614  -15.813595 H    2298 MOH     0.4215 ****
14096 HC1    17.592960   10.218781  -14.258667 H    2299 MOH     0.0372 ****
14097 C1     17.675521   11.158569  -13.712780 C    2299 MOH     0.1166 ****
14098 HC2    16.848755   11.814216  -13.985724 H    2299 MOH     0.0372 ****
14099 HC3    18.632768   11.620706  -13.957439 H    2299 MOH     0.0372 ****
14100 O1     17.634529   10.800535  -12.371399 O    2299 MOH    -0.6497 ****
14101 HO1    17.858541   11.543547  -11.807128 H    2299 MOH     0.4215 ****
14102 HC1     5.500358   14.843010  -14.515347 H    2300 MOH     0.0372 ****
14103 C1      4.834674   15.701964  -14.430494 C    2300 MOH     0.1166 ****
14104 HC2     3.792556   15.381897  -14.437565 H    2300 MOH     0.0372 ****
14105 HC3     4.969774   16.326584  -15.312963 H    2300 MOH     0.0372 ****
14106 O1      5.060417   16.498865  -13.226998 O    2300 MOH    -0.6497 ****
14107 HO1     4.987671   15.931808  -12.456959 H    2300 MOH     0.4215 ****
14108 HC1    -3.732627    0.684551  -23.921988 H    2301 MOH     0.0372 ****
14109 C1     -3.319822    1.692107  -23.958758 C    2301 MOH     0.1166 ****
14110 HC2    -3.405269    2.162818  -22.979415 H    2301 MOH     0.0372 ****
14111 HC3    -3.896594    2.279985  -24.672936 H    2301 MOH     0.0372 ****
14112 O1     -1.980369    1.636586  -24.390093 O    2301 MOH    -0.6497 ****
14113 HO1    -1.946883    0.976040  -25.085886 H    2301 MOH     0.4215 ****
14114 HC1    12.380642   -1.158690  -17.973099 H    2302 MOH     0.0372 ****
14115 C1     11.700523   -1.727380  -17.338824 C    2302 MOH     0.1166 ****
14116 HC2    12.055016   -1.690230  -16.308569 H    2302 MOH     0.0372 ****
14117 HC3    11.645675   -2.763923  -17.670457 H    2302 MOH     0.0372 ****
14118 O1     10.467880   -1.104393  -17.420848 O    2302 MOH    -0.6497 ****
14119 HO1    10.570071   -0.211554  -17.084973 H    2302 MOH     0.4215 ****
14120 HC1     2.440979   19.096957  -11.781672 H    2303 MOH     0.0372 ****
14121 C1      1.986605   19.394978  -12.726367 C    2303 MOH     0.1166 ****
14122 HC2     0.905805   19.260256  -12.678283 H    2303 MOH     0.0372 ****
14123 HC3     2.409225   18.770358  -13.514083 H    2303 MOH     0.0372 ****
14124 O1      2.268352   20.752404  -12.985875 O    2303 MOH    -0.6497 ****
14125 HO1     1.998729   20.946730  -13.886729 H    2303 MOH     0.4215 ****
14126 HC1     3.481942   22.010625   -8.658381 H    2304 MOH     0.0372 ****
14127 C1      3.140150   21.341098   -9.447512 C    2304 MOH     0.1166 ****
14128 HC2     2.641897   20.464997   -9.031734 H    2304 MOH     0.0372 ****
14129 HC3     4.012527   21.023072  -10.018148 H    2304 MOH     0.0372 ****
14130 O1      2.358996   22.071046  -10.369580 O    2304 MOH    -0.6497 ****
14131 HO1     2.386131   21.584005  -11.196187 H    2304 MOH     0.4215 ****
14132 HC1     6.248604    5.304697  -12.989410 H    2305 MOH     0.0372 ****
14133 C1      6.108308    5.150379  -14.058556 C    2305 MOH     0.1166 ****
14134 HC2     5.912009    6.104863  -14.547873 H    2305 MOH     0.0372 ****
14135 HC3     5.274037    4.471462  -14.234625 H    2305 MOH     0.0372 ****
14136 O1      7.283793    4.595978  -14.610099 O    2305 MOH    -0.6497 ****
14137 HO1     7.930426    4.495140  -13.907942 H    2305 MOH     0.4215 ****
14138 HC1     9.011803   13.341064  -11.698940 H    2306 MOH     0.0372 ****
14139 C1      9.494468   12.375149  -11.846018 C    2306 MOH     0.1166 ****
14140 HC2     8.721396   11.621114  -11.993804 H    2306 MOH     0.0372 ****
14141 HC3    10.059116   12.132649  -10.946579 H    2306 MOH     0.0372 ****
14142 O1     10.402640   12.402910  -12.968904 O    2306 MOH    -0.6497 ****
14143 HO1    11.113935   13.007117  -12.739801 H    2306 MOH     0.4215 ****
14144 HC1     3.704799    5.098531  -20.358170 H    2307 MOH     0.0372 ****
14145 C1      3.543718    4.085667  -19.989767 C    2307 MOH     0.1166 ****
14146 HC2     2.792586    4.130574  -19.202050 H    2307 MOH     0.0372 ****
14147 HC3     4.468634    3.685176  -19.574696 H    2307 MOH     0.0372 ****
14148 O1      3.092231    3.238960  -21.046185 O    2307 MOH    -0.6497 ****
14149 HO1     3.496953    2.380822  -20.896278 H    2307 MOH     0.4215 ****
14150 HC1    12.710309   -0.784327  -12.744044 H    2308 MOH     0.0372 ****
14151 C1     12.544032   -0.697370  -11.669949 C    2308 MOH     0.1166 ****
14152 HC2    12.616200    0.358769  -11.410441 H    2308 MOH     0.0372 ****
14153 HC3    13.330960   -1.251363  -11.157296 H    2308 MOH     0.0372 ****
14154 O1     11.218435   -1.216253  -11.435896 O    2308 MOH    -0.6497 ****
14155 HO1    10.907244   -0.867609  -10.597268 H    2308 MOH     0.4215 ****
14156 HC1    11.576393   16.612766   -3.562970 H    2309 MOH     0.0372 ****
14157 C1     10.865097   15.786880   -3.573576 C    2309 MOH     0.1166 ****
14158 HC2    11.227096   15.055707   -4.296946 H    2309 MOH     0.0372 ****
14159 HC3     9.876096   16.159202   -3.843691 H    2309 MOH     0.0372 ****
14160 O1     10.801588   15.213291   -2.288763 O    2309 MOH    -0.6497 ****
14161 HO1    10.525615   15.897107   -1.674287 H    2309 MOH     0.4215 ****
14162 HC1     7.506073   18.142472  -20.571009 H    2310 MOH     0.0372 ****
14163 C1      6.925259   18.523776  -19.730966 C    2310 MOH     0.1166 ****
14164 HC2     7.222594   19.530925  -19.438931 H    2310 MOH     0.0372 ****
14165 HC3     7.133105   17.868538  -18.884559 H    2310 MOH     0.0372 ****
14166 O1      5.545969   18.480094  -20.015930 O    2310 MOH    -0.6497 ****
14167 HO1     5.140669   17.805259  -19.466508 H    2310 MOH     0.4215 ****
14168 HC1    12.303854    5.353686  -13.925619 H    2311 MOH     0.0372 ****
14169 C1     12.287111    4.346538  -14.343520 C    2311 MOH     0.1166 ****
14170 HC2    12.788828    3.688033  -13.635706 H    2311 MOH     0.0372 ****
14171 HC3    12.838480    4.317960  -15.283972 H    2311 MOH     0.0372 ****
14172 O1     10.944194    3.910937  -14.492719 O    2311 MOH    -0.6497 ****
14173 HO1    10.452292    4.171808  -13.709952 H    2311 MOH     0.4215 ****
14174 HC1     6.438553    9.144680  -14.793947 H    2312 MOH     0.0372 ****
14175 C1      5.375073    9.345538  -14.925469 C    2312 MOH     0.1166 ****
14176 HC2     4.793104    8.424530  -14.898598 H    2312 MOH     0.0372 ****
14177 HC3     5.209951    9.816248  -15.894912 H    2312 MOH     0.0372 ****
14178 O1      4.924740   10.235928  -13.946126 O    2312 MOH    -0.6497 ****
14179 HO1     5.035014   11.130400  -14.276345 H    2312 MOH     0.4215 ****
14180 HC1    10.151492   12.072228  -17.590554 H    2313 MOH     0.0372 ****
14181 C1      9.747347   12.418015  -18.541613 C    2313 MOH     0.1166 ****
14182 HC2     8.814349   11.894640  -18.753745 H    2313 MOH     0.0372 ****
14183 HC3    10.468458   12.273087  -19.345593 H    2313 MOH     0.0372 ****
14184 O1      9.500818   13.784014  -18.387463 O    2313 MOH    -0.6497 ****
14185 HO1    10.325275   14.239619  -18.199373 H    2313 MOH     0.4215 ****
14186 HC1     5.918937    0.816415  -12.386955 H    2314 MOH     0.0372 ****
14187 C1      5.733031    1.402251  -13.287102 C    2314 MOH     0.1166 ****
14188 HC2     5.750928    0.778448  -14.180885 H    2314 MOH     0.0372 ****
14189 HC3     6.480699    2.187721  -13.395997 H    2314 MOH     0.0372 ****
14190 O1      4.490573    1.990537  -13.157702 O    2314 MOH    -0.6497 ****
14191 HO1     4.192083    2.101172  -14.063505 H    2314 MOH     0.4215 ****
14192 HC1     7.103660    4.391445  -10.967792 H    2315 MOH     0.0372 ****
14193 C1      7.857680    3.637819  -11.195480 C    2315 MOH     0.1166 ****
14194 HC2     7.371551    2.748246  -11.594996 H    2315 MOH     0.0372 ****
14195 HC3     8.346695    3.348371  -10.265635 H    2315 MOH     0.0372 ****
14196 O1      8.791832    4.179973  -12.140175 O    2315 MOH    -0.6497 ****
14197 HO1     9.008339    5.077711  -11.880667 H    2315 MOH     0.4215 ****
14198 HC1     5.349093   12.744205  -20.054114 H    2316 MOH     0.0372 ****
14199 C1      5.111802   12.457615  -19.028809 C    2316 MOH     0.1166 ****
14200 HC2     5.873904   11.795028  -18.619394 H    2316 MOH     0.0372 ****
14201 HC3     4.158596   11.928933  -19.047901 H    2316 MOH     0.0372 ****
14202 O1      5.010188   13.583972  -18.190888 O    2316 MOH    -0.6497 ****
14203 HO1     5.783837   14.140414  -18.310389 H    2316 MOH     0.4215 ****
14204 HC1     3.040269   -2.238099  -13.702174 H    2317 MOH     0.0372 ****
14205 C1      2.633237   -1.237482  -13.847131 C    2317 MOH     0.1166 ****
14206 HC2     1.587656   -1.283206  -14.152601 H    2317 MOH     0.0372 ****
14207 HC3     3.189803   -0.779836  -14.663839 H    2317 MOH     0.0372 ****
14208 O1      2.787967   -0.413637  -12.690304 O    2317 MOH    -0.6497 ****
14209 HO1     3.070868    0.466546  -12.950519 H    2317 MOH     0.4215 ****
14210 HC1     2.446175    2.167308  -11.479737 H    2318 MOH     0.0372 ****
14211 C1      2.534510    3.153228  -11.023653 C    2318 MOH     0.1166 ****
14212 HC2     1.933488    3.185071  -10.115728 H    2318 MOH     0.0372 ****
14213 HC3     2.182326    3.888483  -11.747024 H    2318 MOH     0.0372 ****
14214 O1      3.874540    3.356944  -10.716062 O    2318 MOH    -0.6497 ****
14215 HO1     4.359514    2.890316  -11.399834 H    2318 MOH     0.4215 ****
14216 HC1    12.391034   13.959560  -19.257205 H    2319 MOH     0.0372 ****
14217 C1     12.811345   14.843010  -18.776372 C    2319 MOH     0.1166 ****
14218 HC2    13.064802   15.584797  -19.533683 H    2319 MOH     0.0372 ****
14219 HC3    13.698155   14.560094  -18.209979 H    2319 MOH     0.0372 ****
14220 O1     11.806178   15.339439  -17.953300 O    2319 MOH    -0.6497 ****
14221 HO1    12.162403   15.535807  -17.084266 H    2319 MOH     0.4215 ****
14222 HC1     6.742239   16.267388   -6.681311 H    2320 MOH     0.0372 ****
14223 C1      6.699515   17.141448   -7.331142 C    2320 MOH     0.1166 ****
14224 HC2     7.500300   17.841593   -7.092847 H    2320 MOH     0.0372 ****
14225 HC3     5.760166   17.657473   -7.135980 H    2320 MOH     0.0372 ****
14226 O1      6.700092   16.787088   -8.722728 O    2320 MOH    -0.6497 ****
14227 HO1     6.809211   17.579498   -9.253765 H    2320 MOH     0.4215 ****
14228 HC1     4.409744   -2.670026  -10.665857 H    2321 MOH     0.0372 ****
14229 C1      5.485925   -2.661861  -10.835563 C    2321 MOH     0.1166 ****
14230 HC2     5.906236   -1.801681  -10.315839 H    2321 MOH     0.0372 ****
14231 HC3     5.689729   -2.601440  -11.904708 H    2321 MOH     0.0372 ****
14232 O1      6.079441   -3.806589  -10.334931 O    2321 MOH    -0.6497 ****
14233 HO1     5.617560   -4.067868   -9.535901 H    2321 MOH     0.4215 ****
14234 HC1     1.055916   11.997927  -18.067144 H    2322 MOH     0.0372 ****
14235 C1      0.473370   11.125092  -17.771573 C    2322 MOH     0.1166 ****
14236 HC2     0.809388   10.210208  -18.258770 H    2322 MOH     0.0372 ****
14237 HC3    -0.546808   11.305130  -18.108863 H    2322 MOH     0.0372 ****
14238 O1      0.466441   10.978123  -16.368674 O    2322 MOH    -0.6497 ****
14239 HO1     0.279957   11.839935  -15.987543 H    2322 MOH     0.4215 ****
14240 HC1     0.225109    8.983422  -13.796219 H    2323 MOH     0.0372 ****
14241 C1      1.256834    8.699689  -14.001987 C    2323 MOH     0.1166 ****
14242 HC2     1.527611    7.873803  -13.345085 H    2323 MOH     0.0372 ****
14243 HC3     1.905198    9.550479  -13.791269 H    2323 MOH     0.0372 ****
14244 O1      1.394821    8.380439  -15.363875 O    2323 MOH    -0.6497 ****
14245 HO1     1.098063    9.173257  -15.816423 H    2323 MOH     0.4215 ****
14246 HC1     5.719174    8.255923  -19.482772 H    2324 MOH     0.0372 ****
14247 C1      5.733608    8.963418  -20.312208 C    2324 MOH     0.1166 ****
14248 HC2     4.742875    9.394528  -20.453629 H    2324 MOH     0.0372 ****
14249 HC3     6.072513    8.470254  -21.222962 H    2324 MOH     0.0372 ****
14250 O1      6.610603   10.015065  -20.005324 O    2324 MOH    -0.6497 ****
14251 HO1     6.806902   10.022006  -19.065579 H    2324 MOH     0.4215 ****
14252 HC1    11.850634    4.421247   -6.153102 H    2325 MOH     0.0372 ****
14253 C1     11.925689    5.463097   -6.462814 C    2325 MOH     0.1166 ****
14254 HC2    12.964343    5.687633   -6.706059 H    2325 MOH     0.0372 ****
14255 HC3    11.563691    6.064447   -5.627721 H    2325 MOH     0.0372 ****
14256 O1     11.037725    5.620681   -7.539031 O    2325 MOH    -0.6497 ****
14257 HO1    11.404920    5.100164   -8.256744 H    2325 MOH     0.4215 ****
14258 HC1    -0.484454   12.738081  -12.599087 H    2326 MOH     0.0372 ****
14259 C1     -0.724055   12.105297  -11.744902 C    2326 MOH     0.1166 ****
14260 HC2    -1.769636   12.229812  -11.464181 H    2326 MOH     0.0372 ****
14261 HC3    -0.091856   12.412708  -10.911223 H    2326 MOH     0.0372 ****
14262 O1     -0.422101   10.755219  -12.060979 O    2326 MOH    -0.6497 ****
14263 HO1    -0.884558   10.482101  -12.856474 H    2326 MOH     0.4215 ****
14264 HC1    -3.077912    4.799693  -21.698844 H    2327 MOH     0.0372 ****
14265 C1     -2.289829    4.833986  -22.451206 C    2327 MOH     0.1166 ****
14266 HC2    -2.710140    5.225496  -23.378223 H    2327 MOH     0.0372 ****
14267 HC3    -1.892034    3.836227  -22.637882 H    2327 MOH     0.0372 ****
14268 O1     -1.283507    5.734174  -22.101188 O    2327 MOH    -0.6497 ****
14269 HO1    -0.456164    5.269179  -22.244731 H    2327 MOH     0.4215 ****
14270 HC1     0.125805    4.179156  -24.416963 H    2328 MOH     0.0372 ****
14271 C1      0.555931    3.609241  -23.592476 C    2328 MOH     0.1166 ****
14272 HC2     1.331312    2.965434  -24.007548 H    2328 MOH     0.0372 ****
14273 HC3    -0.189428    2.960535  -23.132150 H    2328 MOH     0.0372 ****
14274 O1      1.125198    4.503713  -22.652731 O    2328 MOH    -0.6497 ****
14275 HO1     1.539736    3.964417  -21.976030 H    2328 MOH     0.4215 ****
14276 HC1    10.473076   12.894440  -22.131594 H    2329 MOH     0.0372 ****
14277 C1     11.216704   12.373516  -22.734049 C    2329 MOH     0.1166 ****
14278 HC2    12.132381   12.963026  -22.782132 H    2329 MOH     0.0372 ****
14279 HC3    10.880686   12.252266  -23.764303 H    2329 MOH     0.0372 ****
14280 O1     11.555031   11.144688  -22.149978 O    2329 MOH    -0.6497 ****
14281 HO1    10.851241   10.873203  -21.556716 H    2329 MOH     0.4215 ****
14282 HC1    11.188991    7.217340  -17.471760 H    2330 MOH     0.0372 ****
14283 C1     11.149731    6.147729  -17.676821 C    2330 MOH     0.1166 ****
14284 HC2    10.371463    5.719477  -17.045375 H    2330 MOH     0.0372 ****
14285 HC3    12.118525    5.711312  -17.432869 H    2330 MOH     0.0372 ****
14286 O1     10.861056    5.855832  -19.045073 O    2330 MOH    -0.6497 ****
14287 HO1    11.290604    5.041376  -19.317309 H    2330 MOH     0.4215 ****
14288 HC1    15.350531    5.897473  -19.718238 H    2331 MOH     0.0372 ****
14289 C1     14.828029    6.826646  -19.490550 C    2331 MOH     0.1166 ****
14290 HC2    13.795727    6.613541  -19.211950 H    2331 MOH     0.0372 ****
14291 HC3    14.868444    7.472903  -20.366655 H    2331 MOH     0.0372 ****
14292 O1     15.515654    7.390029  -18.424233 O    2331 MOH    -0.6497 ****
14293 HO1    15.978111    6.674778  -17.981584 H    2331 MOH     0.4215 ****
14294 HC1    10.223661    8.042001  -20.099369 H    2332 MOH     0.0372 ****
14295 C1      9.286622    8.297973  -20.592222 C    2332 MOH     0.1166 ****
14296 HC2     8.448309    7.966067  -19.979161 H    2332 MOH     0.0372 ****
14297 HC3     9.268146    7.799094  -21.560959 H    2332 MOH     0.0372 ****
14298 O1      9.256022    9.681526  -20.809304 O    2332 MOH    -0.6497 ****
14299 HO1     8.339767    9.922801  -20.961332 H    2332 MOH     0.4215 ****
14300 HC1     0.277070    7.339814  -10.857483 H    2333 MOH     0.0372 ****
14301 C1     -0.732715    7.739081  -10.765559 C    2333 MOH     0.1166 ****
14302 HC2    -1.345284    6.997702  -10.252200 H    2333 MOH     0.0372 ****
14303 HC3    -1.133974    7.930958  -11.761166 H    2333 MOH     0.0372 ****
14304 O1     -0.664588    8.927900  -10.003298 O    2333 MOH    -0.6497 ****
14305 HO1    -0.330302    9.621106  -10.577469 H    2333 MOH     0.4215 ****
14306 HC1     6.894082    3.332041  -21.807032 H    2334 MOH     0.0372 ****
14307 C1      7.199500    2.351837  -22.174020 C    2334 MOH     0.1166 ****
14308 HC2     8.148664    2.431445  -22.703643 H    2334 MOH     0.0372 ****
14309 HC3     6.432779    1.959510  -22.840822 H    2334 MOH     0.0372 ****
14310 O1      7.353075    1.431237  -21.099925 O    2334 MOH    -0.6497 ****
14311 HO1     8.202358    0.997269  -21.208112 H    2334 MOH     0.4215 ****
14312 HC1    12.735135    0.683734  -15.134065 H    2335 MOH     0.0372 ****
14313 C1     13.606356    1.187104  -15.553379 C    2335 MOH     0.1166 ****
14314 HC2    13.308443    2.136282  -15.996735 H    2335 MOH     0.0372 ****
14315 HC3    14.045142    0.575548  -16.342510 H    2335 MOH     0.0372 ****
14316 O1     14.575150    1.462264  -14.567672 O    2335 MOH    -0.6497 ****
14317 HO1    15.005276    0.624130  -14.384532 H    2335 MOH     0.4215 ****
14318 HC1    -3.979156   14.576015  -12.433624 H    2336 MOH     0.0372 ****
14319 C1     -3.116594   15.038969  -12.913043 C    2336 MOH     0.1166 ****
14320 HC2    -2.329666   15.153687  -12.167045 H    2336 MOH     0.0372 ****
14321 HC3    -3.433560   16.031012  -13.235483 H    2336 MOH     0.0372 ****
14322 O1     -2.733811   14.251458  -14.071991 O    2336 MOH    -0.6497 ****
14323 HO1    -3.427786   14.297590  -14.733136 H    2336 MOH     0.4215 ****
14324 HC1     2.707138   10.013432   -6.172901 H    2337 MOH     0.0372 ****
14325 C1      3.315088   10.884226   -6.421095 C    2337 MOH     0.1166 ****
14326 HC2     4.364710   10.614782   -6.535647 H    2337 MOH     0.0372 ****
14327 HC3     3.258507   11.606417   -5.605801 H    2337 MOH     0.0372 ****
14328 O1      2.920180   11.446384   -7.630955 O    2337 MOH    -0.6497 ****
14329 HO1     3.201927   10.847892   -8.326748 H    2337 MOH     0.4215 ****
14330 HC1     4.179958    7.007500  -26.881937 H    2338 MOH     0.0372 ****
14331 C1      5.103719    7.195703  -27.429945 C    2338 MOH     0.1166 ****
14332 HC2     5.694348    6.280818  -27.392468 H    2338 MOH     0.0372 ****
14333 HC3     5.626221    8.019139  -26.942748 H    2338 MOH     0.0372 ****
14334 O1      4.830632    7.548021  -28.784054 O    2338 MOH    -0.6497 ****
14335 HO1     5.612365    7.970150  -29.147507 H    2338 MOH     0.4215 ****
14336 HC1     8.287806   16.263305  -16.860820 H    2339 MOH     0.0372 ****
14337 C1      7.272824   15.879960  -16.964765 C    2339 MOH     0.1166 ****
14338 HC2     6.551713   16.697273  -16.943551 H    2339 MOH     0.0372 ****
14339 HC3     7.037842   15.185122  -16.158663 H    2339 MOH     0.0372 ****
14340 O1      7.145229   15.167975  -18.147047 O    2339 MOH    -0.6497 ****
14341 HO1     7.865763   14.534782  -18.178867 H    2339 MOH     0.4215 ****
14342 HC1     1.766634    2.269370  -15.971279 H    2340 MOH     0.0372 ****
14343 C1      2.623422    2.011358  -16.594948 C    2340 MOH     0.1166 ****
14344 HC2     2.809329    2.804584  -17.318318 H    2340 MOH     0.0372 ****
14345 HC3     2.377471    1.107496  -17.152148 H    2340 MOH     0.0372 ****
14346 O1      3.786783    1.820706  -15.793796 O    2340 MOH    -0.6497 ****
14347 HO1     4.483067    1.472878  -16.355238 H    2340 MOH     0.4215 ****
14348 HC1     7.821307    1.929300  -16.787988 H    2341 MOH     0.0372 ****
14349 C1      7.323053    1.153628  -17.367815 C    2341 MOH     0.1166 ****
14350 HC2     8.049937    0.408167  -17.690256 H    2341 MOH     0.0372 ****
14351 HC3     6.860596    1.627604  -18.234021 H    2341 MOH     0.0372 ****
14352 O1      6.347909    0.522884  -16.570906 O    2341 MOH    -0.6497 ****
14353 HO1     6.819604    0.153828  -15.821373 H    2341 MOH     0.4215 ****
14354 HC1    11.161855    7.981172   -9.600954 H    2342 MOH     0.0372 ****
14355 C1     10.539472    8.875644   -9.610147 C    2342 MOH     0.1166 ****
14356 HC2    10.983454    9.662747   -9.000621 H    2342 MOH     0.0372 ****
14357 HC3     9.567791    8.597627   -9.200732 H    2342 MOH     0.0372 ****
14358 O1     10.359916    9.328392  -10.931729 O    2342 MOH    -0.6497 ****
14359 HO1    11.217281    9.603959  -11.264777 H    2342 MOH     0.4215 ****
14360 HC1     7.145807   13.628063  -21.081540 H    2343 MOH     0.0372 ****
14361 C1      7.738745   13.289625  -21.930775 C    2343 MOH     0.1166 ****
14362 HC2     8.105940   12.293907  -21.682581 H    2343 MOH     0.0372 ****
14363 HC3     8.585718   13.959560  -22.082803 H    2343 MOH     0.0372 ****
14364 O1      6.934497   13.238594  -23.101037 O    2343 MOH    -0.6497 ****
14365 HO1     7.341529   12.588254  -23.678743 H    2343 MOH     0.4215 ****
14366 HC1     2.902282   13.948946  -15.419029 H    2344 MOH     0.0372 ****
14367 C1      3.083570   12.910770  -15.139722 C    2344 MOH     0.1166 ****
14368 HC2     2.424236   12.273495  -15.728742 H    2344 MOH     0.0372 ****
14369 HC3     2.858981   12.756044  -14.084012 H    2344 MOH     0.0372 ****
14370 O1      4.413785   12.515178  -15.380845 O    2344 MOH    -0.6497 ****
14371 HO1     4.593341   12.623364  -16.317762 H    2344 MOH     0.4215 ****
14372 HC1     6.790736    8.160802  -11.760459 H    2345 MOH     0.0372 ****
14373 C1      7.244534    9.040168  -11.303668 C    2345 MOH     0.1166 ****
14374 HC2     8.081691    9.356969  -11.925922 H    2345 MOH     0.0372 ****
14375 HC3     7.548220    8.791137  -10.286848 H    2345 MOH     0.0372 ****
14376 O1      6.294215   10.037927  -11.339023 O    2345 MOH    -0.6497 ****
14377 HO1     5.966280   10.093449  -12.239877 H    2345 MOH     0.4215 ****
14378 HC1    -1.376461   19.633395  -14.089668 H    2346 MOH     0.0372 ****
14379 C1     -2.284055   19.569708  -13.490042 C    2346 MOH     0.1166 ****
14380 HC2    -2.894892   18.723001  -13.802583 H    2346 MOH     0.0372 ****
14381 HC3    -2.833115   20.501739  -13.622271 H    2346 MOH     0.0372 ****
14382 O1     -1.912242   19.386405  -12.165631 O    2346 MOH    -0.6497 ****
14383 HO1    -1.385121   18.583789  -12.167045 H    2346 MOH     0.4215 ****
14384 HC1    14.153684   11.479860   -6.383619 H    2347 MOH     0.0372 ****
14385 C1     13.900805   12.344530   -5.769850 C    2347 MOH     0.1166 ****
14386 HC2    14.708518   12.527834   -5.062036 H    2347 MOH     0.0372 ****
14387 HC3    12.982818   12.111829   -5.231035 H    2347 MOH     0.0372 ****
14388 O1     13.708547   13.452924   -6.626156 O    2347 MOH    -0.6497 ****
14389 HO1    13.023232   13.181847   -7.241339 H    2347 MOH     0.4215 ****
14390 HC1    10.413032    4.220389   -9.917738 H    2348 MOH     0.0372 ****
14391 C1     11.235756    3.529633  -10.103000 C    2348 MOH     0.1166 ****
14392 HC2    11.511152    3.650883  -11.150225 H    2348 MOH     0.0372 ****
14393 HC3    10.927451    2.489825   -9.996227 H    2348 MOH     0.0372 ****
14394 O1     12.325793    3.840310   -9.218410 O    2348 MOH    -0.6497 ****
14395 HO1    12.936630    3.099748   -9.205682 H    2348 MOH     0.4215 ****
14396 HC1     6.160270    5.561893  -19.112955 H    2349 MOH     0.0372 ****
14397 C1      7.087494    5.385121  -18.569190 C    2349 MOH     0.1166 ****
14398 HC2     7.021676    4.460439  -17.995726 H    2349 MOH     0.0372 ****
14399 HC3     7.310929    6.221622  -17.906631 H    2349 MOH     0.0372 ****
14400 O1      8.090929    5.283059  -19.499742 O    2349 MOH    -0.6497 ****
14401 HO1     8.900952    5.623947  -19.112955 H    2349 MOH     0.4215 ****
14402 HC1     4.063334    5.706005  -24.385850 H    2350 MOH     0.0372 ****
14403 C1      4.343349    4.797652  -23.851985 C    2350 MOH     0.1166 ****
14404 HC2     5.151639    4.302039  -24.389386 H    2350 MOH     0.0372 ****
14405 HC3     3.512542    4.091791  -23.828650 H    2350 MOH     0.0372 ****
14406 O1      4.780980    5.058931  -22.532523 O    2350 MOH    -0.6497 ****
14407 HO1     4.433415    4.354294  -21.980980 H    2350 MOH     0.4215 ****
14408 HC1    15.247186    5.178140  -10.982641 H    2351 MOH     0.0372 ****
14409 C1     14.415801    5.861547  -11.152347 C    2351 MOH     0.1166 ****
14410 HC2    13.493773    5.401451  -10.795258 H    2351 MOH     0.0372 ****
14411 HC3    14.345365    6.049750  -12.223613 H    2351 MOH     0.0372 ****
14412 O1     14.743736    7.082210  -10.500394 O    2351 MOH    -0.6497 ****
14413 HO1    15.356882    6.885026   -9.788338 H    2351 MOH     0.4215 ****
14414 HC1     7.753756    7.407584   -2.499481 H    2352 MOH     0.0372 ****
14415 C1      6.862328    8.034245   -2.531301 C    2352 MOH     0.1166 ****
14416 HC2     5.973786    7.403501   -2.571606 H    2352 MOH     0.0372 ****
14417 HC3     6.871565    8.652333   -3.429326 H    2352 MOH     0.0372 ****
14418 O1      6.872720    8.881768   -1.409829 O    2352 MOH    -0.6497 ****
14419 HO1     7.628471    9.461889   -1.526502 H    2352 MOH     0.4215 ****
14420 HC1    15.007008    8.004442  -14.960117 H    2353 MOH     0.0372 ****
14421 C1     13.997222    7.683559  -15.216089 C    2353 MOH     0.1166 ****
14422 HC2    13.299783    8.114261  -14.496962 H    2353 MOH     0.0372 ****
14423 HC3    13.915816    6.597211  -15.181441 H    2353 MOH     0.0372 ****
14424 O1     13.642152    8.142839  -16.488174 O    2353 MOH    -0.6497 ****
14425 HO1    14.240864    7.735407  -17.117499 H    2353 MOH     0.4215 ****
14426 HC1     9.410752    8.669479   -3.912987 H    2354 MOH     0.0372 ****
14427 C1      9.635341    9.735415   -3.862783 C    2354 MOH     0.1166 ****
14428 HC2     9.276229   10.283285   -4.733938 H    2354 MOH     0.0372 ****
14429 HC3    10.721337    9.781956   -3.934908 H    2354 MOH     0.0372 ****
14430 O1      9.274497   10.333499   -2.596355 O    2354 MOH    -0.6497 ****
14431 HO1     9.202328   11.282268   -2.722220 H    2354 MOH     0.4215 ****
14432 HC1     8.497384   -4.781486  -12.545347 H    2355 MOH     0.0372 ****
14433 C1      9.078775   -4.024185  -12.018552 C    2355 MOH     0.1166 ****
14434 HC2    10.132440   -4.268318  -12.155731 H    2355 MOH     0.0372 ****
14435 HC3     8.848990   -4.013571  -10.953650 H    2355 MOH     0.0372 ****
14436 O1      8.950604   -2.763923  -12.570803 O    2355 MOH    -0.6497 ****
14437 HO1     9.749079   -2.287497  -12.329679 H    2355 MOH     0.4215 ****
14438 HC1     3.652837    6.575574   -7.463371 H    2356 MOH     0.0372 ****
14439 C1      3.998093    5.732541   -8.060876 C    2356 MOH     0.1166 ****
14440 HC2     4.738256    5.200593   -7.461956 H    2356 MOH     0.0372 ****
14441 HC3     4.439766    6.118335   -8.979408 H    2356 MOH     0.0372 ****
14442 O1      2.945583    4.814799   -8.394630 O    2356 MOH    -0.6497 ****
14443 HO1     3.224444    4.301631   -9.156184 H    2356 MOH     0.4215 ****
14444 HC1    10.810249   15.112862  -13.685910 H    2357 MOH     0.0372 ****
14445 C1     10.317769   15.549279  -14.554945 C    2357 MOH     0.1166 ****
14446 HC2     9.375533   16.036728  -14.304629 H    2357 MOH     0.0372 ****
14447 HC3    10.065467   14.714820  -15.209725 H    2357 MOH     0.0372 ****
14448 O1     11.155504   16.474370  -15.254980 O    2357 MOH    -0.6497 ****
14449 HO1    10.614527   17.174107  -15.626918 H    2357 MOH     0.4215 ****
14450 HC1     8.717931   -5.104002  -17.208009 H    2358 MOH     0.0372 ****
14451 C1      8.685023   -4.018878  -17.307004 C    2358 MOH     0.1166 ****
14452 HC2     9.130160   -3.549801  -16.429485 H    2358 MOH     0.0372 ****
14453 HC3     7.647524   -3.693096  -17.381957 H    2358 MOH     0.0372 ****
14454 O1      9.370915   -3.641657  -18.472316 O    2358 MOH    -0.6497 ****
14455 HO1     9.472528   -2.688397  -18.432011 H    2358 MOH     0.4215 ****
14456 HC1    17.151287    3.712936  -16.025019 H    2359 MOH     0.0372 ****
14457 C1     16.245424    4.037494  -16.536258 C    2359 MOH     0.1166 ****
14458 HC2    15.359769    3.644759  -16.037040 H    2359 MOH     0.0372 ****
14459 HC3    16.252930    3.689258  -17.569341 H    2359 MOH     0.0372 ****
14460 O1     16.152471    5.429621  -16.522116 O    2359 MOH    -0.6497 ****
14461 HO1    16.422671    5.714986  -15.646010 H    2359 MOH     0.4215 ****
14462 HC1     9.685571    8.276744  -14.040171 H    2360 MOH     0.0372 ****
14463 C1     10.348946    7.454940  -13.770763 C    2360 MOH     0.1166 ****
14464 HC2    11.365082    7.841143  -13.692981 H    2360 MOH     0.0372 ****
14465 HC3    10.335090    6.672328  -14.529489 H    2360 MOH     0.0372 ****
14466 O1      9.970782    7.027913  -12.483829 O    2360 MOH    -0.6497 ****
14467 HO1    10.024475    7.797052  -11.912486 H    2360 MOH     0.4215 ****
14468 HC1    13.465483   14.475994   -9.936830 H    2361 MOH     0.0372 ****
14469 C1     13.126001   13.730125  -10.655958 C    2361 MOH     0.1166 ****
14470 HC2    12.619665   12.892808  -10.174418 H    2361 MOH     0.0372 ****
14471 HC3    14.012811   13.333307  -11.150932 H    2361 MOH     0.0372 ****
14472 O1     12.284801   14.350662  -11.610552 O    2361 MOH    -0.6497 ****
14473 HO1    12.814232   15.035703  -12.026331 H    2361 MOH     0.4215 ****
14474 HC1     4.171875    7.239793  -18.917793 H    2362 MOH     0.0372 ****
14475 C1      3.541409    6.926259  -18.086236 C    2362 MOH     0.1166 ****
14476 HC2     2.565110    6.613541  -18.456760 H    2362 MOH     0.0372 ****
14477 HC3     3.371091    7.753370  -17.396100 H    2362 MOH     0.0372 ****
14478 O1      4.143585    5.872162  -17.390443 O    2362 MOH    -0.6497 ****
14479 HO1     3.492912    5.517802  -16.780917 H    2362 MOH     0.4215 ****
14480 HC1     6.834038   11.972208  -15.773997 H    2363 MOH     0.0372 ****
14481 C1      7.490485   12.247775  -14.948803 C    2363 MOH     0.1166 ****
14482 HC2     6.943734   12.211849  -14.005523 H    2363 MOH     0.0372 ****
14483 HC3     7.836895   13.270437  -15.099417 H    2363 MOH     0.0372 ****
14484 O1      8.609390   11.375757  -14.883749 O    2363 MOH    -0.6497 ****
14485 HO1     9.214453   11.702356  -14.213412 H    2363 MOH     0.4215 ****
14486 HC1    10.610486   16.687067   -8.006429 H    2364 MOH     0.0372 ****
14487 C1     10.298716   16.268204   -7.049006 C    2364 MOH     0.1166 ****
14488 HC2     9.771596   17.014482   -6.456451 H    2364 MOH     0.0372 ****
14489 HC3    11.191300   15.934666   -6.520797 H    2364 MOH     0.0372 ****
14490 O1      9.484075   15.154095   -7.275987 O    2364 MOH    -0.6497 ****
14491 HO1     8.798183   15.395370   -7.901777 H    2364 MOH     0.4215 ****
14492 HC1     3.290262   22.081252  -15.725914 H    2365 MOH     0.0372 ****
14493 C1      2.382667   22.460923  -16.195432 C    2365 MOH     0.1166 ****
14494 HC2     2.513148   22.440919  -17.278013 H    2365 MOH     0.0372 ****
14495 HC3     2.239484   23.491750  -15.873699 H    2365 MOH     0.0372 ****
14496 O1      1.242400   21.667696  -15.821373 O    2365 MOH    -0.6497 ****
14497 HO1     0.469328   22.172699  -16.083710 H    2365 MOH     0.4215 ****
14498 HC1     5.447819   13.611325   -9.214167 H    2366 MOH     0.0372 ****
14499 C1      6.029789   13.853824  -10.103707 C    2366 MOH     0.1166 ****
14500 HC2     5.993416   13.032020  -10.818592 H    2366 MOH     0.0372 ****
14501 HC3     7.056895   13.997119   -9.766417 H    2366 MOH     0.0372 ****
14502 O1      5.563867   15.098165  -10.635452 O    2366 MOH    -0.6497 ****
14503 HO1     5.979559   15.775449  -10.097343 H    2366 MOH     0.4215 ****
14504 HC1     2.942119    9.045067  -11.542670 H    2367 MOH     0.0372 ****
14505 C1      3.104932    8.820939  -10.488373 C    2367 MOH     0.1166 ****
14506 HC2     3.672467    7.894215  -10.396450 H    2367 MOH     0.0372 ****
14507 HC3     2.121127    8.703364  -10.034411 H    2367 MOH     0.0372 ****
14508 O1      3.797752    9.897490   -9.896525 O    2367 MOH    -0.6497 ****
14509 HO1     4.636065    9.988121  -10.354730 H    2367 MOH     0.4215 ****
14510 HC1     2.664414    8.940148  -20.878601 H    2368 MOH     0.0372 ****
14511 C1      2.531046    7.917486  -21.231447 C    2368 MOH     0.1166 ****
14512 HC2     1.532230    7.839918  -21.659954 H    2368 MOH     0.0372 ****
14513 HC3     2.604370    7.200602  -20.414031 H    2368 MOH     0.0372 ****
14514 O1      3.451342    7.640285  -22.243317 O    2368 MOH    -0.6497 ****
14515 HO1     3.567390    6.692332  -22.335240 H    2368 MOH     0.4215 ****
14516 HC1     4.851417   -0.334437  -21.920876 H    2369 MOH     0.0372 ****
14517 C1      4.114718    0.011349  -21.196091 C    2369 MOH     0.1166 ****
14518 HC2     3.843941   -0.796574  -20.515148 H    2369 MOH     0.0372 ****
14519 HC3     3.205969    0.311003  -21.716522 H    2369 MOH     0.0372 ****
14520 O1      4.554659    1.092799  -20.402011 O    2369 MOH    -0.6497 ****
14521 HO1     5.502091    1.024213  -20.266246 H    2369 MOH     0.4215 ****
14522 HC1     5.800003   16.220848  -21.568737 H    2370 MOH     0.0372 ****
14523 C1      4.952453   15.556219  -21.399031 C    2370 MOH     0.1166 ****
14524 HC2     4.087005   16.200027  -21.242761 H    2370 MOH     0.0372 ****
14525 HC3     5.185125   14.954461  -20.520805 H    2370 MOH     0.0372 ****
14526 O1      4.819085   14.854440  -22.614548 O    2370 MOH    -0.6497 ****
14527 HO1     5.664903   14.448642  -22.819609 H    2370 MOH     0.4215 ****
14528 HC1     3.688633   -2.585110  -16.158663 H    2371 MOH     0.0372 ****
14529 C1      4.723822   -2.280965  -16.314933 C    2371 MOH     0.1166 ****
14530 HC2     5.312720   -3.183602  -16.482518 H    2371 MOH     0.0372 ****
14531 HC3     5.096791   -1.724114  -15.456506 H    2371 MOH     0.0372 ****
14532 O1      4.721513   -1.549384  -17.491559 O    2371 MOH    -0.6497 ****
14533 HO1     5.358908   -0.840257  -17.381957 H    2371 MOH     0.4215 ****
14534 HC1    16.751183    2.606992  -11.587924 H    2372 MOH     0.0372 ****
14535 C1     17.135121    3.203851  -12.415239 C    2372 MOH     0.1166 ****
14536 HC2    17.822745    2.586579  -12.993653 H    2372 MOH     0.0372 ****
14537 HC3    17.636261    4.065663  -11.973298 H    2372 MOH     0.0372 ****
14538 O1     16.069910    3.643534  -13.202249 O    2372 MOH    -0.6497 ****
14539 HO1    15.540480    2.887458  -13.463879 H    2372 MOH     0.4215 ****
14540 HC1     7.217398   11.603151   -6.987488 H    2373 MOH     0.0372 ****
14541 C1      7.280907   10.680102   -7.563780 C    2373 MOH     0.1166 ****
14542 HC2     8.312632   10.475978   -7.849451 H    2373 MOH     0.0372 ****
14543 HC3     6.663719   10.791962   -8.454734 H    2373 MOH     0.0372 ****
14544 O1      6.763023    9.626821   -6.798690 O    2373 MOH    -0.6497 ****
14545 HO1     7.013016    8.802160   -7.222954 H    2373 MOH     0.4215 ****
14546 HC1     1.829565   17.226771  -18.318874 H    2374 MOH     0.0372 ****
14547 C1      2.700787   16.571533  -18.337966 C    2374 MOH     0.1166 ****
14548 HC2     2.700210   15.999985  -19.265690 H    2374 MOH     0.0372 ****
14549 HC3     2.673074   15.862406  -17.509944 H    2374 MOH     0.0372 ****
14550 O1      3.879159   17.356186  -18.264427 O    2374 MOH    -0.6497 ****
14551 HO1     3.849714   17.866905  -17.451961 H    2374 MOH     0.4215 ****
14552 HC1    16.643219    8.063638  -12.852231 H    2375 MOH     0.0372 ****
14553 C1     17.283500    7.188354  -12.743337 C    2375 MOH     0.1166 ****
14554 HC2    17.133389    6.787454  -11.740659 H    2375 MOH     0.0372 ****
14555 HC3    18.322153    7.501072  -12.849403 H    2375 MOH     0.0372 ****
14556 O1     16.904181    6.246525  -13.746721 O    2375 MOH    -0.6497 ****
14557 HO1    16.833167    5.373282  -13.354277 H    2375 MOH     0.4215 ****
14558 HC1    14.778955   10.277161   -8.431400 H    2376 MOH     0.0372 ****
14559 C1     15.637474   10.638869   -8.997085 C    2376 MOH     0.1166 ****
14560 HC2    15.289332   11.158161   -9.889454 H    2376 MOH     0.0372 ****
14561 HC3    16.266786    9.798286   -9.290534 H    2376 MOH     0.0372 ****
14562 O1     16.386875   11.528442   -8.201590 O    2376 MOH    -0.6497 ****
14563 HO1    16.554307   11.109987   -7.353769 H    2376 MOH     0.4215 ****
14564 HC1    15.578007   11.598252  -18.363422 H    2377 MOH     0.0372 ****
14565 C1     15.131138   12.012216  -19.267104 C    2377 MOH     0.1166 ****
14566 HC2    14.103455   12.331058  -19.095277 H    2377 MOH     0.0372 ****
14567 HC3    15.161738   11.239810  -20.036436 H    2377 MOH     0.0372 ****
14568 O1     15.941738   13.076519  -19.655306 O    2377 MOH    -0.6497 ****
14569 HO1    16.123603   13.622755  -18.887388 H    2377 MOH     0.4215 ****
14570 HC1     8.803957    9.345946  -23.769253 H    2378 MOH     0.0372 ****
14571 C1      7.879619    9.861156  -24.030883 C    2378 MOH     0.1166 ****
14572 HC2     7.166591    9.814207  -23.207103 H    2378 MOH     0.0372 ****
14573 HC3     7.443720    9.414940  -24.923958 H    2378 MOH     0.0372 ****
14574 O1      8.117487   11.210416  -24.310190 O    2378 MOH    -0.6497 ****
14575 HO1     8.622091   11.240627  -25.126191 H    2378 MOH     0.4215 ****
14576 HC1     0.525908   16.539281  -13.717023 H    2379 MOH     0.0372 ****
14577 C1      0.155250   16.142464  -12.772328 C    2379 MOH     0.1166 ****
14578 HC2     1.009728   16.019581  -12.106941 H    2379 MOH     0.0372 ****
14579 HC3    -0.316446   15.166751  -12.888294 H    2379 MOH     0.0372 ****
14580 O1     -0.699806   17.077761  -12.210179 O    2379 MOH    -0.6497 ****
14581 HO1    -0.515054   17.079394  -11.268312 H    2379 MOH     0.4215 ****
14582 HC1    -0.185964   11.864430   -7.978852 H    2380 MOH     0.0372 ****
14583 C1     -0.252360   11.603968   -6.922434 C    2380 MOH     0.1166 ****
14584 HC2    -0.144395   10.525784   -6.798690 H    2380 MOH     0.0372 ****
14585 HC3    -1.236165   11.918727   -6.573830 H    2380 MOH     0.0372 ****
14586 O1      0.731445   12.322893   -6.199064 O    2380 MOH    -0.6497 ****
14587 HO1     1.554169   12.213891   -6.682018 H    2380 MOH     0.4215 ****
14588 HC1     7.360581   14.425372   -3.130220 H    2381 MOH     0.0372 ****
14589 C1      7.798212   13.521918   -3.555191 C    2381 MOH     0.1166 ****
14590 HC2     8.041854   13.717061   -4.598881 H    2381 MOH     0.0372 ****
14591 HC3     7.092690   12.695624   -3.461853 H    2381 MOH     0.0372 ****
14592 O1      8.934438   13.224305   -2.807780 O    2381 MOH    -0.6497 ****
14593 HO1     9.562017   13.950171   -2.855863 H    2381 MOH     0.4215 ****
14594 HC1     0.523599   17.953045  -16.792231 H    2382 MOH     0.0372 ****
14595 C1      1.089980   18.258007  -15.911883 C    2382 MOH     0.1166 ****
14596 HC2     1.475650   17.364351  -15.420443 H    2382 MOH     0.0372 ****
14597 HC3     0.435842   18.781789  -15.215382 H    2382 MOH     0.0372 ****
14598 O1      2.184636   19.072462  -16.317055 O    2382 MOH    -0.6497 ****
14599 HO1     1.833607   19.947746  -16.493831 H    2382 MOH     0.4215 ****
14600 HC1     8.451773   -6.657387  -14.045120 H    2383 MOH     0.0372 ****
14601 C1      9.289508   -6.429176  -14.704851 C    2383 MOH     0.1166 ****
14602 HC2     9.646888   -5.427743  -14.469385 H    2383 MOH     0.0372 ****
14603 HC3     8.939057   -6.474083  -15.735813 H    2383 MOH     0.0372 ****
14604 O1     10.370308   -7.371005  -14.500497 O    2383 MOH    -0.6497 ****
14605 HO1    11.203424   -6.982761  -14.778390 H    2383 MOH     0.4215 ****
14606 HC1     2.645361    4.197935  -14.429787 H    2384 MOH     0.0372 ****
14607 C1      2.333592    5.241418  -14.465142 C    2384 MOH     0.1166 ****
14608 HC2     3.139573    5.898698  -14.137044 H    2384 MOH     0.0372 ****
14609 HC3     1.490661    5.364709  -13.786320 H    2384 MOH     0.0372 ****
14610 O1      1.880372    5.587613  -15.759147 O    2384 MOH    -0.6497 ****
14611 HO1     1.669062    6.523318  -15.729449 H    2384 MOH     0.4215 ****
14612 HC1     9.341470   12.211441   -6.932333 H    2385 MOH     0.0372 ****
14613 C1     10.266962   12.511095   -6.438773 C    2385 MOH     0.1166 ****
14614 HC2    10.710945   11.657040   -5.926828 H    2385 MOH     0.0372 ****
14615 HC3    10.021011   13.263089   -5.689240 H    2385 MOH     0.0372 ****
14616 O1     11.149153   13.010383   -7.464785 O    2385 MOH    -0.6497 ****
14617 HO1    10.958628   13.948538   -7.539738 H    2385 MOH     0.4215 ****
14618 HC1    -1.629340    3.368783  -13.613078 H    2386 MOH     0.0372 ****
14619 C1     -0.858000    3.075661  -12.900315 C    2386 MOH     0.1166 ****
14620 HC2     0.039780    2.819281  -13.463172 H    2386 MOH     0.0372 ****
14621 HC3    -1.188244    2.187313  -12.361499 H    2386 MOH     0.0372 ****
14622 O1     -0.597615    4.153028  -11.991683 O    2386 MOH    -0.6497 ****
14623 HO1    -1.263877    4.128125  -11.300839 H    2386 MOH     0.4215 ****
14624 HC1    -1.758667    3.979523   -7.729950 H    2387 MOH     0.0372 ****
14625 C1     -1.275424    3.828879   -8.695151 C    2387 MOH     0.1166 ****
14626 HC2    -0.819895    2.839285   -8.714950 H    2387 MOH     0.0372 ****
14627 HC3    -0.515054    4.598019   -8.833744 H    2387 MOH     0.0372 ****
14628 O1     -2.306572    3.878277   -9.681565 O    2387 MOH    -0.6497 ****
14629 HO1    -2.819259    4.679260   -9.551457 H    2387 MOH     0.4215 ****
14630 HC1     7.758375   16.080410  -11.584389 H    2388 MOH     0.0372 ****
14631 C1      8.704075   16.423339  -11.164368 C    2388 MOH     0.1166 ****
14632 HC2     8.590337   17.397827  -10.688485 H    2388 MOH     0.0372 ****
14633 HC3     9.433846   16.536832  -11.966227 H    2388 MOH     0.0372 ****
14634 O1      9.145748   15.501106  -10.192096 O    2388 MOH    -0.6497 ****
14635 HO1     9.977132   15.112862  -10.474231 H    2388 MOH     0.4215 ****
14636 HC1     7.676392    8.014649  -16.513630 H    2389 MOH     0.0372 ****
14637 C1      8.458124    8.687850  -16.865062 C    2389 MOH     0.1166 ****
14638 HC2     9.017576    8.253066  -17.693084 H    2389 MOH     0.0372 ****
14639 HC3     9.143439    8.892791  -16.043404 H    2389 MOH     0.0372 ****
14640 O1      7.884238    9.887284  -17.310540 O    2389 MOH    -0.6497 ****
14641 HO1     8.079382   10.530683  -16.624646 H    2389 MOH     0.4215 ****
14642 HC1    12.576248   30.755548  -16.242101 H    2390 MOH     0.0372 ****
14643 C1     11.539904   30.894353  -15.935217 C    2390 MOH     0.1166 ****
14644 HC2    10.976410   31.258510  -16.793645 H    2390 MOH     0.0372 ****
14645 HC3    11.470045   31.644305  -15.146793 H    2390 MOH     0.0372 ****
14646 O1     11.014515   29.651645  -15.518024 O    2390 MOH    -0.6497 ****
14647 HO1    10.251836   29.803921  -14.955874 H    2390 MOH     0.4215 ****
14648 HC1     7.074677   20.214577  -12.150782 H    2391 MOH     0.0372 ****
14649 C1      6.273892   19.820618  -11.524992 C    2391 MOH     0.1166 ****
14650 HC2     5.708089   19.090262  -12.104113 H    2391 MOH     0.0372 ****
14651 HC3     5.601279   20.597514  -11.163661 H    2391 MOH     0.0372 ****
14652 O1      6.770991   19.079647  -10.480595 O    2391 MOH    -0.6497 ****
14653 HO1     7.315432   19.675690   -9.961579 H    2391 MOH     0.4215 ****
14654 HC1    19.184022   21.453611   -7.644390 H    2392 MOH     0.0372 ****
14655 C1     19.245221   22.233365   -6.886371 C    2392 MOH     0.1166 ****
14656 HC2    19.605487   21.787558   -5.958647 H    2392 MOH     0.0372 ****
14657 HC3    18.252178   22.658760   -6.740708 H    2392 MOH     0.0372 ****
14658 O1     20.116442   23.256027   -7.314171 O    2392 MOH    -0.6497 ****
14659 HO1    21.003252   22.895952   -7.380639 H    2392 MOH     0.4215 ****
14660 HC1    25.442499   26.202763  -13.424988 H    2393 MOH     0.0372 ****
14661 C1     25.876089   26.395865  -12.444231 C    2393 MOH     0.1166 ****
14662 HC2    26.161877   27.446696  -12.393319 H    2393 MOH     0.0372 ****
14663 HC3    26.764053   25.776552  -12.317659 H    2393 MOH     0.0372 ****
14664 O1     24.921729   26.081105  -11.436604 O    2393 MOH    -0.6497 ****
14665 HO1    25.122647   25.189491  -11.143861 H    2393 MOH     0.4215 ****
14666 HC1    18.805280   15.349074  -21.057498 H    2394 MOH     0.0372 ****
14667 C1     18.618218   14.363155  -20.632527 C    2394 MOH     0.1166 ****
14668 HC2    18.226198   14.457868  -19.619950 H    2394 MOH     0.0372 ****
14669 HC3    19.575465   13.846720  -20.563938 H    2394 MOH     0.0372 ****
14670 O1     17.777019   13.559314  -21.481763 O    2394 MOH    -0.6497 ****
14671 HO1    17.061105   13.213119  -20.944361 H    2394 MOH     0.4215 ****
14672 HC1    21.435688   15.821009  -14.420594 H    2395 MOH     0.0372 ****
14673 C1     20.586983   16.255794  -13.892385 C    2395 MOH     0.1166 ****
14674 HC2    20.450728   17.282946  -14.230382 H    2395 MOH     0.0372 ****
14675 HC3    20.751528   16.243546  -12.814755 H    2395 MOH     0.0372 ****
14676 O1     19.421313   15.557689  -14.226140 O    2395 MOH    -0.6497 ****
14677 HO1    19.448448   14.757114  -13.696517 H    2395 MOH     0.4215 ****
14678 HC1    13.625871   29.304226  -11.573075 H    2396 MOH     0.0372 ****
14679 C1     14.229779   29.855769  -10.852534 C    2396 MOH     0.1166 ****
14680 HC2    15.041533   29.220535  -10.498980 H    2396 MOH     0.0372 ****
14681 HC3    13.581415   30.141543  -10.023804 H    2396 MOH     0.0372 ****
14682 O1     14.734383   30.979676  -11.508022 O    2396 MOH    -0.6497 ****
14683 HO1    15.547292   31.241364  -11.068908 H    2396 MOH     0.4215 ****
14684 HC1    11.687706   23.982709   -7.188306 H    2397 MOH     0.0372 ****
14685 C1     10.667528   23.689995   -6.940112 C    2397 MOH     0.1166 ****
14686 HC2    10.506447   23.747558   -5.864602 H    2397 MOH     0.0372 ****
14687 HC3    10.459104   22.667741   -7.256896 H    2397 MOH     0.0372 ****
14688 O1      9.781295   24.582426   -7.541152 O    2397 MOH    -0.6497 ****
14689 HO1    10.232783   24.958831   -8.300585 H    2397 MOH     0.4215 ****
14690 HC1     6.286594   26.769412  -10.984055 H    2398 MOH     0.0372 ****
14691 C1      7.326979   26.796765  -11.310032 C    2398 MOH     0.1166 ****
14692 HC2     7.911258   26.157039  -10.647473 H    2398 MOH     0.0372 ****
14693 HC3     7.668193   27.830449  -11.256292 H    2398 MOH     0.0372 ****
14694 O1      7.393952   26.314623  -12.633028 O    2398 MOH    -0.6497 ****
14695 HO1     6.799281   25.561813  -12.676869 H    2398 MOH     0.4215 ****
14696 HC1     9.166995   22.087212  -15.143965 H    2399 MOH     0.0372 ****
14697 C1     10.081517   22.393398  -15.651667 C    2399 MOH     0.1166 ****
14698 HC2    10.676765   23.047820  -15.014564 H    2399 MOH     0.0372 ****
14699 HC3     9.806121   22.939635  -16.553935 H    2399 MOH     0.0372 ****
14700 O1     10.783575   21.253977  -16.049768 O    2399 MOH    -0.6497 ****
14701 HO1    11.718305   21.452794  -15.959966 H    2399 MOH     0.4215 ****
14702 HC1    22.433349   17.906750  -18.577675 H    2400 MOH     0.0372 ****
14703 C1     22.480692   18.630166  -17.763088 C    2400 MOH     0.1166 ****
14704 HC2    21.687412   19.357664  -17.934208 H    2400 MOH     0.0372 ****
14705 HC3    23.441403   19.143742  -17.809757 H    2400 MOH     0.0372 ****
14706 O1     22.295362   17.988399  -16.469083 O    2400 MOH    -0.6497 ****
14707 HO1    22.103682   18.664050  -15.813595 H    2400 MOH     0.4215 ****
14708 HC1     6.112812   21.749591  -19.999667 H    2401 MOH     0.0372 ****
14709 C1      6.155536   21.991274  -18.937592 C    2401 MOH     0.1166 ****
14710 HC2     7.192457   21.929220  -18.606666 H    2401 MOH     0.0372 ****
14711 HC3     5.557978   21.289495  -18.355644 H    2401 MOH     0.0372 ****
14712 O1      5.721945   23.285013  -18.668185 O    2401 MOH    -0.6497 ****
14713 HO1     4.952338   23.476481  -19.209122 H    2401 MOH     0.4215 ****
14714 HC1     3.509539   25.687146  -12.284425 H    2402 MOH     0.0372 ****
14715 C1      3.074794   24.801655  -11.821270 C    2402 MOH     0.1166 ****
14716 HC2     2.662566   24.126821  -12.571510 H    2402 MOH     0.0372 ****
14717 HC3     2.252648   25.087837  -11.164368 H    2402 MOH     0.0372 ****
14718 O1      3.980080   24.099060  -11.025775 O    2402 MOH    -0.6497 ****
14719 HO1     3.453536   23.381359  -10.665150 H    2402 MOH     0.4215 ****
14720 HC1    17.098633   31.245446  -14.515347 H    2403 MOH     0.0372 ****
14721 C1     16.432948   32.104401  -14.430494 C    2403 MOH     0.1166 ****
14722 HC2    15.390830   31.784334  -14.437565 H    2403 MOH     0.0372 ****
14723 HC3    16.568048   32.729020  -15.312963 H    2403 MOH     0.0372 ****
14724 O1     16.658692   32.901301  -13.226998 O    2403 MOH    -0.6497 ****
14725 HO1    16.585945   32.334244  -12.456959 H    2403 MOH     0.4215 ****
14726 HC1    17.173111   20.591391   -5.565496 H    2404 MOH     0.0372 ****
14727 C1     17.472755   19.544234   -5.580345 C    2404 MOH     0.1166 ****
14728 HC2    18.106686   19.355623   -6.447258 H    2404 MOH     0.0372 ****
14729 HC3    16.604998   18.890220   -5.659541 H    2404 MOH     0.0372 ****
14730 O1     18.177700   19.233148   -4.386749 O    2404 MOH    -0.6497 ****
14731 HO1    18.611867   18.384809   -4.505543 H    2404 MOH     0.4215 ****
14732 HC1     9.422183   23.859010  -19.612879 H    2405 MOH     0.0372 ****
14733 C1      8.881784   24.728579  -19.986232 C    2405 MOH     0.1166 ****
14734 HC2     8.438379   24.399122  -20.925977 H    2405 MOH     0.0372 ****
14735 HC3     9.604626   25.531603  -20.132603 H    2405 MOH     0.0372 ****
14736 O1      7.890473   25.067016  -18.992747 O    2405 MOH    -0.6497 ****
14737 HO1     7.254810   24.352990  -18.910015 H    2405 MOH     0.4215 ****
14738 HC1     7.865647   17.086987  -23.921988 H    2406 MOH     0.0372 ****
14739 C1      8.278453   18.094544  -23.958758 C    2406 MOH     0.1166 ****
14740 HC2     8.193005   18.565254  -22.979415 H    2406 MOH     0.0372 ****
14741 HC3     7.701680   18.682421  -24.672936 H    2406 MOH     0.0372 ****
14742 O1      9.617905   18.039022  -24.390093 O    2406 MOH    -0.6497 ****
14743 HO1     9.651391   17.378476  -25.085886 H    2406 MOH     0.4215 ****
14744 HC1    23.978916   15.243746  -17.973099 H    2407 MOH     0.0372 ****
14745 C1     23.298797   14.675056  -17.338824 C    2407 MOH     0.1166 ****
14746 HC2    23.653290   14.712207  -16.308569 H    2407 MOH     0.0372 ****
14747 HC3    23.243949   13.638514  -17.670457 H    2407 MOH     0.0372 ****
14748 O1     22.066154   15.298043  -17.420848 O    2407 MOH    -0.6497 ****
14749 HO1    22.168345   16.190882  -17.084973 H    2407 MOH     0.4215 ****
14750 HC1    14.039253   35.499393  -11.781672 H    2408 MOH     0.0372 ****
14751 C1     13.584879   35.797415  -12.726367 C    2408 MOH     0.1166 ****
14752 HC2    12.504079   35.662693  -12.678283 H    2408 MOH     0.0372 ****
14753 HC3    14.007499   35.172795  -13.514083 H    2408 MOH     0.0372 ****
14754 O1     13.866626   37.154840  -12.985875 O    2408 MOH    -0.6497 ****
14755 HO1    13.597003   37.349166  -13.886729 H    2408 MOH     0.4215 ****
14756 HC1    17.846878   21.707133  -12.989410 H    2409 MOH     0.0372 ****
14757 C1     17.706582   21.552815  -14.058556 C    2409 MOH     0.1166 ****
14758 HC2    17.510283   22.507300  -14.547873 H    2409 MOH     0.0372 ****
14759 HC3    16.872311   20.873898  -14.234625 H    2409 MOH     0.0372 ****
14760 O1     18.882067   20.998414  -14.610099 O    2409 MOH    -0.6497 ****
14761 HO1    19.528700   20.897577  -13.907942 H    2409 MOH     0.4215 ****
14762 HC1    20.610077   29.743501  -11.698940 H    2410 MOH     0.0372 ****
14763 C1     21.092742   28.777585  -11.846018 C    2410 MOH     0.1166 ****
14764 HC2    20.319670   28.023551  -11.993804 H    2410 MOH     0.0372 ****
14765 HC3    21.657390   28.535086  -10.946579 H    2410 MOH     0.0372 ****
14766 O1     22.000914   28.805346  -12.968904 O    2410 MOH    -0.6497 ****
14767 HO1    22.712209   29.409554  -12.739801 H    2410 MOH     0.4215 ****
14768 HC1    15.303073   21.500968  -20.358170 H    2411 MOH     0.0372 ****
14769 C1     15.141992   20.488104  -19.989767 C    2411 MOH     0.1166 ****
14770 HC2    14.390860   20.533011  -19.202050 H    2411 MOH     0.0372 ****
14771 HC3    16.066908   20.087612  -19.574696 H    2411 MOH     0.0372 ****
14772 O1     14.690505   19.641397  -21.046185 O    2411 MOH    -0.6497 ****
14773 HO1    15.095227   18.783259  -20.896278 H    2411 MOH     0.4215 ****
14774 HC1    24.308583   15.618110  -12.744044 H    2412 MOH     0.0372 ****
14775 C1     24.142306   15.705067  -11.669949 C    2412 MOH     0.1166 ****
14776 HC2    24.214475   16.761205  -11.410441 H    2412 MOH     0.0372 ****
14777 HC3    24.929234   15.151074  -11.157296 H    2412 MOH     0.0372 ****
14778 O1     22.816710   15.186183  -11.435896 O    2412 MOH    -0.6497 ****
14779 HO1    22.505518   15.534827  -10.597268 H    2412 MOH     0.4215 ****
14780 HC1     7.682050   24.188058   -9.545093 H    2413 MOH     0.0372 ****
14781 C1      7.290606   23.418918  -10.209773 C    2413 MOH     0.1166 ****
14782 HC2     7.790014   23.452803  -11.177803 H    2413 MOH     0.0372 ****
14783 HC3     6.219044   23.581401  -10.334224 H    2413 MOH     0.0372 ****
14784 O1      7.431480   22.152124   -9.624996 O    2413 MOH    -0.6497 ****
14785 HO1     6.985188   22.151715   -8.775761 H    2413 MOH     0.4215 ****
14786 HC1    23.902128   21.756123  -13.925619 H    2414 MOH     0.0372 ****
14787 C1     23.885385   20.748974  -14.343520 C    2414 MOH     0.1166 ****
14788 HC2    24.387102   20.090470  -13.635706 H    2414 MOH     0.0372 ****
14789 HC3    24.436754   20.720397  -15.283972 H    2414 MOH     0.0372 ****
14790 O1     22.542468   20.313373  -14.492719 O    2414 MOH    -0.6497 ****
14791 HO1    22.050566   20.574244  -13.709952 H    2414 MOH     0.4215 ****
14792 HC1    18.036827   25.547116  -14.793947 H    2415 MOH     0.0372 ****
14793 C1     16.973348   25.747975  -14.925469 C    2415 MOH     0.1166 ****
14794 HC2    16.391378   24.826966  -14.898598 H    2415 MOH     0.0372 ****
14795 HC3    16.808225   26.218685  -15.894912 H    2415 MOH     0.0372 ****
14796 O1     16.523014   26.638364  -13.946126 O    2415 MOH    -0.6497 ****
14797 HO1    16.633288   27.532836  -14.276345 H    2415 MOH     0.4215 ****
14798 HC1    17.517211   17.218851  -12.386955 H    2416 MOH     0.0372 ****
14799 C1     17.331305   17.804688  -13.287102 C    2416 MOH     0.1166 ****
14800 HC2    17.349203   17.180884  -14.180885 H    2416 MOH     0.0372 ****
14801 HC3    18.078973   18.590157  -13.395997 H    2416 MOH     0.0372 ****
14802 O1     16.088847   18.392973  -13.157702 O    2416 MOH    -0.6497 ****
14803 HO1    15.790357   18.503609  -14.063505 H    2416 MOH     0.4215 ****
14804 HC1    18.701934   20.793882  -10.967792 H    2417 MOH     0.0372 ****
14805 C1     19.455954   20.040255  -11.195480 C    2417 MOH     0.1166 ****
14806 HC2    18.969825   19.150682  -11.594996 H    2417 MOH     0.0372 ****
14807 HC3    19.944969   19.750807  -10.265635 H    2417 MOH     0.0372 ****
14808 O1     20.390106   20.582409  -12.140175 O    2417 MOH    -0.6497 ****
14809 HO1    20.606613   21.480147  -11.880667 H    2417 MOH     0.4215 ****
14810 HC1    14.638543   14.164338  -13.702174 H    2418 MOH     0.0372 ****
14811 C1     14.231511   15.164954  -13.847131 C    2418 MOH     0.1166 ****
14812 HC2    13.185930   15.119230  -14.152601 H    2418 MOH     0.0372 ****
14813 HC3    14.788077   15.622601  -14.663839 H    2418 MOH     0.0372 ****
14814 O1     14.386241   15.988799  -12.690304 O    2418 MOH    -0.6497 ****
14815 HO1    14.669143   16.868983  -12.950519 H    2418 MOH     0.4215 ****
14816 HC1    14.044450   18.569745  -11.479737 H    2419 MOH     0.0372 ****
14817 C1     14.132784   19.555665  -11.023653 C    2419 MOH     0.1166 ****
14818 HC2    13.531763   19.587508  -10.115728 H    2419 MOH     0.0372 ****
14819 HC3    13.780600   20.290920  -11.747024 H    2419 MOH     0.0372 ****
14820 O1     15.472814   19.759380  -10.716062 O    2419 MOH    -0.6497 ****
14821 HO1    15.957788   19.292753  -11.399834 H    2419 MOH     0.4215 ****
14822 HC1    16.008018   13.732411  -10.665857 H    2420 MOH     0.0372 ****
14823 C1     17.084199   13.740576  -10.835563 C    2420 MOH     0.1166 ****
14824 HC2    17.504510   14.600755  -10.315839 H    2420 MOH     0.0372 ****
14825 HC3    17.288003   13.800997  -11.904708 H    2420 MOH     0.0372 ****
14826 O1     17.677715   12.595848  -10.334931 O    2420 MOH    -0.6497 ****
14827 HO1    17.215835   12.334569   -9.535901 H    2420 MOH     0.4215 ****
14828 HC1    12.654190   28.400364  -18.067144 H    2421 MOH     0.0372 ****
14829 C1     12.071644   27.527529  -17.771573 C    2421 MOH     0.1166 ****
14830 HC2    12.407662   26.612644  -18.258770 H    2421 MOH     0.0372 ****
14831 HC3    11.051466   27.707566  -18.108863 H    2421 MOH     0.0372 ****
14832 O1     12.064716   27.380560  -16.368674 O    2421 MOH    -0.6497 ****
14833 HO1    11.878231   28.242372  -15.987543 H    2421 MOH     0.4215 ****
14834 HC1    11.823383   25.385858  -13.796219 H    2422 MOH     0.0372 ****
14835 C1     12.855108   25.102126  -14.001987 C    2422 MOH     0.1166 ****
14836 HC2    13.125885   24.276240  -13.345085 H    2422 MOH     0.0372 ****
14837 HC3    13.503472   25.952915  -13.791269 H    2422 MOH     0.0372 ****
14838 O1     12.993095   24.782876  -15.363875 O    2422 MOH    -0.6497 ****
14839 HO1    12.696337   25.575694  -15.816423 H    2422 MOH     0.4215 ****
14840 HC1    23.448908   20.823684   -6.153102 H    2423 MOH     0.0372 ****
14841 C1     23.523964   21.865533   -6.462814 C    2423 MOH     0.1166 ****
14842 HC2    24.562617   22.090070   -6.706059 H    2423 MOH     0.0372 ****
14843 HC3    23.161965   22.466883   -5.627721 H    2423 MOH     0.0372 ****
14844 O1     22.635999   22.023117   -7.539031 O    2423 MOH    -0.6497 ****
14845 HO1    23.003194   21.502601   -8.256744 H    2423 MOH     0.4215 ****
14846 HC1    13.173805   16.911032   -5.604387 H    2424 MOH     0.0372 ****
14847 C1     14.166270   16.931853   -6.054814 C    2424 MOH     0.1166 ****
14848 HC2    14.689350   17.843063   -5.764900 H    2424 MOH     0.0372 ****
14849 HC3    14.106226   16.876331   -7.140930 H    2424 MOH     0.0372 ****
14850 O1     14.901237   15.867141   -5.606508 O    2424 MOH    -0.6497 ****
14851 HO1    14.454368   15.071057   -5.902079 H    2424 MOH     0.4215 ****
14852 HC1    11.113820   29.140518  -12.599087 H    2425 MOH     0.0372 ****
14853 C1     10.874219   28.507733  -11.744902 C    2425 MOH     0.1166 ****
14854 HC2     9.828638   28.632249  -11.464181 H    2425 MOH     0.0372 ****
14855 HC3    11.506418   28.815144  -10.911223 H    2425 MOH     0.0372 ****
14856 O1     11.176173   27.157656  -12.060979 O    2425 MOH    -0.6497 ****
14857 HO1    10.713716   26.884538  -12.856474 H    2425 MOH     0.4215 ****
14858 HC1     8.520362   21.202130  -21.698844 H    2426 MOH     0.0372 ****
14859 C1      9.308445   21.236423  -22.451206 C    2426 MOH     0.1166 ****
14860 HC2     8.888134   21.627933  -23.378223 H    2426 MOH     0.0372 ****
14861 HC3     9.706240   20.238664  -22.637882 H    2426 MOH     0.0372 ****
14862 O1     10.314767   22.136610  -22.101188 O    2426 MOH    -0.6497 ****
14863 HO1    11.142110   21.671615  -22.244731 H    2426 MOH     0.4215 ****
14864 HC1    22.787265   23.619776  -17.471760 H    2427 MOH     0.0372 ****
14865 C1     22.748005   22.550166  -17.676821 C    2427 MOH     0.1166 ****
14866 HC2    21.969737   22.121913  -17.045375 H    2427 MOH     0.0372 ****
14867 HC3    23.716799   22.113748  -17.432869 H    2427 MOH     0.0372 ****
14868 O1     22.459330   22.258268  -19.045073 O    2427 MOH    -0.6497 ****
14869 HO1    22.888878   21.443813  -19.317309 H    2427 MOH     0.4215 ****
14870 HC1    20.349114   17.514015  -10.078251 H    2428 MOH     0.0372 ****
14871 C1     20.600262   16.993498   -9.154063 C    2428 MOH     0.1166 ****
14872 HC2    19.933422   16.139851   -9.033148 H    2428 MOH     0.0372 ****
14873 HC3    20.477286   17.663434   -8.303413 H    2428 MOH     0.0372 ****
14874 O1     21.940292   16.562796   -9.250937 O    2428 MOH    -0.6497 ****
14875 HO1    22.130240   16.007170   -8.492211 H    2428 MOH     0.4215 ****
14876 HC1    11.875345   23.742251  -10.857483 H    2429 MOH     0.0372 ****
14877 C1     10.865559   24.141518  -10.765559 C    2429 MOH     0.1166 ****
14878 HC2    10.252990   23.400139  -10.252200 H    2429 MOH     0.0372 ****
14879 HC3    10.464301   24.333394  -11.761166 H    2429 MOH     0.0372 ****
14880 O1     10.933686   25.330337  -10.003298 O    2429 MOH    -0.6497 ****
14881 HO1    11.267972   26.023542  -10.577469 H    2429 MOH     0.4215 ****
14882 HC1    24.333409   17.086171  -15.134065 H    2430 MOH     0.0372 ****
14883 C1     25.204630   17.589541  -15.553379 C    2430 MOH     0.1166 ****
14884 HC2    24.906718   18.538718  -15.996735 H    2430 MOH     0.0372 ****
14885 HC3    25.643417   16.977985  -16.342510 H    2430 MOH     0.0372 ****
14886 O1     26.173424   17.864700  -14.567672 O    2430 MOH    -0.6497 ****
14887 HO1    26.603550   17.026566  -14.384532 H    2430 MOH     0.4215 ****
14888 HC1     7.619118   30.978452  -12.433624 H    2431 MOH     0.0372 ****
14889 C1      8.481680   31.441405  -12.913043 C    2431 MOH     0.1166 ****
14890 HC2     9.268608   31.556123  -12.167045 H    2431 MOH     0.0372 ****
14891 HC3     8.164714   32.433449  -13.235483 H    2431 MOH     0.0372 ****
14892 O1      8.864463   30.653894  -14.071991 O    2431 MOH    -0.6497 ****
14893 HO1     8.170488   30.700026  -14.733136 H    2431 MOH     0.4215 ****
14894 HC1    14.305412   26.415869   -6.172901 H    2432 MOH     0.0372 ****
14895 C1     14.913362   27.286662   -6.421095 C    2432 MOH     0.1166 ****
14896 HC2    15.962984   27.017219   -6.535647 H    2432 MOH     0.0372 ****
14897 HC3    14.856781   28.008854   -5.605801 H    2432 MOH     0.0372 ****
14898 O1     14.518454   27.848820   -7.630955 O    2432 MOH    -0.6497 ****
14899 HO1    14.800201   27.250328   -8.326748 H    2432 MOH     0.4215 ****
14900 HC1    13.364908   18.671807  -15.971279 H    2433 MOH     0.0372 ****
14901 C1     14.221696   18.413794  -16.594948 C    2433 MOH     0.1166 ****
14902 HC2    14.407603   19.207021  -17.318318 H    2433 MOH     0.0372 ****
14903 HC3    13.975745   17.509932  -17.152148 H    2433 MOH     0.0372 ****
14904 O1     15.385057   18.223142  -15.793796 O    2433 MOH    -0.6497 ****
14905 HO1    16.081341   17.875315  -16.355238 H    2433 MOH     0.4215 ****
14906 HC1    19.419581   18.331736  -16.787988 H    2434 MOH     0.0372 ****
14907 C1     18.921327   17.556064  -17.367815 C    2434 MOH     0.1166 ****
14908 HC2    19.648211   16.810603  -17.690256 H    2434 MOH     0.0372 ****
14909 HC3    18.458870   18.030041  -18.234021 H    2434 MOH     0.0372 ****
14910 O1     17.946183   16.925321  -16.570906 O    2434 MOH    -0.6497 ****
14911 HO1    18.417878   16.556264  -15.821373 H    2434 MOH     0.4215 ****
14912 HC1    22.760129   24.383609   -9.600954 H    2435 MOH     0.0372 ****
14913 C1     22.137746   25.278081   -9.610147 C    2435 MOH     0.1166 ****
14914 HC2    22.581728   26.065184   -9.000621 H    2435 MOH     0.0372 ****
14915 HC3    21.166065   25.000064   -9.200732 H    2435 MOH     0.0372 ****
14916 O1     21.958190   25.730828  -10.931729 O    2435 MOH    -0.6497 ****
14917 HO1    22.815555   26.006396  -11.264777 H    2435 MOH     0.4215 ****
14918 HC1    14.500556   30.351382  -15.419029 H    2436 MOH     0.0372 ****
14919 C1     14.681844   29.313207  -15.139722 C    2436 MOH     0.1166 ****
14920 HC2    14.022510   28.675931  -15.728742 H    2436 MOH     0.0372 ****
14921 HC3    14.457255   29.158481  -14.084012 H    2436 MOH     0.0372 ****
14922 O1     16.012059   28.917614  -15.380845 O    2436 MOH    -0.6497 ****
14923 HO1    16.191615   29.025800  -16.317762 H    2436 MOH     0.4215 ****
14924 HC1    18.389010   24.563238  -11.760459 H    2437 MOH     0.0372 ****
14925 C1     18.842808   25.442605  -11.303668 C    2437 MOH     0.1166 ****
14926 HC2    19.679966   25.759406  -11.925922 H    2437 MOH     0.0372 ****
14927 HC3    19.146494   25.193573  -10.286848 H    2437 MOH     0.0372 ****
14928 O1     17.892489   26.440364  -11.339023 O    2437 MOH    -0.6497 ****
14929 HO1    17.564554   26.495886  -12.239877 H    2437 MOH     0.4215 ****
14930 HC1    10.221813   36.035832  -14.089668 H    2438 MOH     0.0372 ****
14931 C1      9.314219   35.972145  -13.490042 C    2438 MOH     0.1166 ****
14932 HC2     8.703382   35.125438  -13.802583 H    2438 MOH     0.0372 ****
14933 HC3     8.765159   36.904176  -13.622271 H    2438 MOH     0.0372 ****
14934 O1      9.686032   35.788841  -12.165631 O    2438 MOH    -0.6497 ****
14935 HO1    10.213153   34.986225  -12.167045 H    2438 MOH     0.4215 ****
14936 HC1    22.011306   20.622826   -9.917738 H    2439 MOH     0.0372 ****
14937 C1     22.834030   19.932070  -10.103000 C    2439 MOH     0.1166 ****
14938 HC2    23.109426   20.053319  -11.150225 H    2439 MOH     0.0372 ****
14939 HC3    22.525725   18.892261   -9.996227 H    2439 MOH     0.0372 ****
14940 O1     23.924067   20.242746   -9.218410 O    2439 MOH    -0.6497 ****
14941 HO1    24.534904   19.502184   -9.205682 H    2439 MOH     0.4215 ****
14942 HC1    17.758544   21.964329  -19.112955 H    2440 MOH     0.0372 ****
14943 C1     18.685768   21.787558  -18.569190 C    2440 MOH     0.1166 ****
14944 HC2    18.619950   20.862876  -17.995726 H    2440 MOH     0.0372 ****
14945 HC3    18.909203   22.624059  -17.906631 H    2440 MOH     0.0372 ****
14946 O1     19.689203   21.685496  -19.499742 O    2440 MOH    -0.6497 ****
14947 HO1    20.499226   22.026383  -19.112955 H    2440 MOH     0.4215 ****
14948 HC1    26.845460   21.580576  -10.982641 H    2441 MOH     0.0372 ****
14949 C1     26.014075   22.263984  -11.152347 C    2441 MOH     0.1166 ****
14950 HC2    25.092047   21.803888  -10.795258 H    2441 MOH     0.0372 ****
14951 HC3    25.943639   22.452186  -12.223613 H    2441 MOH     0.0372 ****
14952 O1     26.342010   23.484646  -10.500394 O    2441 MOH    -0.6497 ****
14953 HO1    26.955156   23.287462   -9.788338 H    2441 MOH     0.4215 ****
14954 HC1    19.352030   23.810020   -2.499481 H    2442 MOH     0.0372 ****
14955 C1     18.460602   24.436681   -2.531301 C    2442 MOH     0.1166 ****
14956 HC2    17.572060   23.805938   -2.571606 H    2442 MOH     0.0372 ****
14957 HC3    18.469839   25.054769   -3.429326 H    2442 MOH     0.0372 ****
14958 O1     18.470994   25.284205   -1.409829 O    2442 MOH    -0.6497 ****
14959 HO1    19.226745   25.864325   -1.526502 H    2442 MOH     0.4215 ****
14960 HC1    21.009026   25.071916   -3.912987 H    2443 MOH     0.0372 ****
14961 C1     21.233615   26.137852   -3.862783 C    2443 MOH     0.1166 ****
14962 HC2    20.874503   26.685721   -4.733938 H    2443 MOH     0.0372 ****
14963 HC3    22.319611   26.184392   -3.934908 H    2443 MOH     0.0372 ****
14964 O1     20.872771   26.735936   -2.596355 O    2443 MOH    -0.6497 ****
14965 HO1    20.800602   27.684705   -2.722220 H    2443 MOH     0.4215 ****
14966 HC1    20.095658   11.620951  -12.545347 H    2444 MOH     0.0372 ****
14967 C1     20.677049   12.378251  -12.018552 C    2444 MOH     0.1166 ****
14968 HC2    21.730714   12.134119  -12.155731 H    2444 MOH     0.0372 ****
14969 HC3    20.447264   12.388866  -10.953650 H    2444 MOH     0.0372 ****
14970 O1     20.548878   13.638514  -12.570803 O    2444 MOH    -0.6497 ****
14971 HO1    21.347353   14.114940  -12.329679 H    2444 MOH     0.4215 ****
14972 HC1    15.251112   22.978010   -7.463371 H    2445 MOH     0.0372 ****
14973 C1     15.596367   22.134977   -8.060876 C    2445 MOH     0.1166 ****
14974 HC2    16.336530   21.603030   -7.461956 H    2445 MOH     0.0372 ****
14975 HC3    16.038040   22.520772   -8.979408 H    2445 MOH     0.0372 ****
14976 O1     14.543858   21.217235   -8.394630 O    2445 MOH    -0.6497 ****
14977 HO1    14.822718   20.704067   -9.156184 H    2445 MOH     0.4215 ****
14978 HC1    20.316206   11.298435  -17.208009 H    2446 MOH     0.0372 ****
14979 C1     20.283297   12.383559  -17.307004 C    2446 MOH     0.1166 ****
14980 HC2    20.728434   12.852636  -16.429485 H    2446 MOH     0.0372 ****
14981 HC3    19.245798   12.709341  -17.381957 H    2446 MOH     0.0372 ****
14982 O1     20.969189   12.760780  -18.472316 O    2446 MOH    -0.6497 ****
14983 HO1    21.070802   13.714040  -18.432011 H    2446 MOH     0.4215 ****
14984 HC1    28.749561   20.115373  -16.025019 H    2447 MOH     0.0372 ****
14985 C1     27.843698   20.439930  -16.536258 C    2447 MOH     0.1166 ****
14986 HC2    26.958043   20.047195  -16.037040 H    2447 MOH     0.0372 ****
14987 HC3    27.851204   20.091695  -17.569341 H    2447 MOH     0.0372 ****
14988 O1     27.750745   21.832057  -16.522116 O    2447 MOH    -0.6497 ****
14989 HO1    28.020945   22.117423  -15.646010 H    2447 MOH     0.4215 ****
14990 HC1    21.283845   24.679181  -14.040171 H    2448 MOH     0.0372 ****
14991 C1     21.947220   23.857377  -13.770763 C    2448 MOH     0.1166 ****
14992 HC2    22.963357   24.243580  -13.692981 H    2448 MOH     0.0372 ****
14993 HC3    21.933364   23.074765  -14.529489 H    2448 MOH     0.0372 ****
14994 O1     21.569056   23.430349  -12.483829 O    2448 MOH    -0.6497 ****
14995 HO1    21.622749   24.199489  -11.912486 H    2448 MOH     0.4215 ****
14996 HC1    15.770150   23.642230  -18.917793 H    2449 MOH     0.0372 ****
14997 C1     15.139683   23.328695  -18.086236 C    2449 MOH     0.1166 ****
14998 HC2    14.163384   23.015977  -18.456760 H    2449 MOH     0.0372 ****
14999 HC3    14.969365   24.155806  -17.396100 H    2449 MOH     0.0372 ****
15000 O1     15.741859   22.274598  -17.390443 O    2449 MOH    -0.6497 ****
15001 HO1    15.091186   21.920239  -16.780917 H    2449 MOH     0.4215 ****
15002 HC1    18.432312   28.374644  -15.773997 H    2450 MOH     0.0372 ****
15003 C1     19.088759   28.650212  -14.948803 C    2450 MOH     0.1166 ****
15004 HC2    18.542008   28.614286  -14.005523 H    2450 MOH     0.0372 ****
15005 HC3    19.435169   29.672874  -15.099417 H    2450 MOH     0.0372 ****
15006 O1     20.207664   27.778193  -14.883749 O    2450 MOH    -0.6497 ****
15007 HO1    20.812727   28.104792  -14.213412 H    2450 MOH     0.4215 ****
15008 HC1     7.770384   18.306833  -15.720964 H    2451 MOH     0.0372 ****
15009 C1      8.414130   19.091078  -16.117651 C    2451 MOH     0.1166 ****
15010 HC2     8.448193   19.892469  -15.380138 H    2451 MOH     0.0372 ****
15011 HC3     8.015181   19.531170  -17.032647 H    2451 MOH     0.0372 ****
15012 O1      9.725870   18.626491  -16.348167 O    2451 MOH    -0.6497 ****
15013 HO1    10.168120   19.413594  -16.673437 H    2451 MOH     0.4215 ****
15014 HC1    17.046094   30.013761   -9.214167 H    2452 MOH     0.0372 ****
15015 C1     17.628063   30.256261  -10.103707 C    2452 MOH     0.1166 ****
15016 HC2    17.591690   29.434457  -10.818592 H    2452 MOH     0.0372 ****
15017 HC3    18.655169   30.399556   -9.766417 H    2452 MOH     0.0372 ****
15018 O1     17.162141   31.500601  -10.635452 O    2452 MOH    -0.6497 ****
15019 HO1    17.577833   32.177885  -10.097343 H    2452 MOH     0.4215 ****
15020 HC1    14.540393   25.447504  -11.542670 H    2453 MOH     0.0372 ****
15021 C1     14.703206   25.223376  -10.488373 C    2453 MOH     0.1166 ****
15022 HC2    15.270742   24.296652  -10.396450 H    2453 MOH     0.0372 ****
15023 HC3    13.719401   25.105800  -10.034411 H    2453 MOH     0.0372 ****
15024 O1     15.396027   26.299926   -9.896525 O    2453 MOH    -0.6497 ****
15025 HO1    16.234339   26.390557  -10.354730 H    2453 MOH     0.4215 ****
15026 HC1    12.475789   19.381343   -6.783134 H    2454 MOH     0.0372 ****
15027 C1     12.082613   19.816127   -5.864602 C    2454 MOH     0.1166 ****
15028 HC2    11.898439   20.880839   -6.006024 H    2454 MOH     0.0372 ****
15029 HC3    12.781784   19.672015   -5.040823 H    2454 MOH     0.0372 ****
15030 O1     10.918098   19.155173   -5.535798 O    2454 MOH    -0.6497 ****
15031 HO1    10.493745   19.604654   -4.801114 H    2454 MOH     0.4215 ****
15032 HC1    16.449691   16.067999  -21.920876 H    2455 MOH     0.0372 ****
15033 C1     15.712992   16.413786  -21.196091 C    2455 MOH     0.1166 ****
15034 HC2    15.442215   15.605862  -20.515148 H    2455 MOH     0.0372 ****
15035 HC3    14.804243   16.713440  -21.716522 H    2455 MOH     0.0372 ****
15036 O1     16.152933   17.495235  -20.402011 O    2455 MOH    -0.6497 ****
15037 HO1    17.100365   17.426650  -20.266246 H    2455 MOH     0.4215 ****
15038 HC1    15.286907   13.817327  -16.158663 H    2456 MOH     0.0372 ****
15039 C1     16.322096   14.121472  -16.314933 C    2456 MOH     0.1166 ****
15040 HC2    16.910994   13.218835  -16.482518 H    2456 MOH     0.0372 ****
15041 HC3    16.695065   14.678322  -15.456506 H    2456 MOH     0.0372 ****
15042 O1     16.319787   14.853052  -17.491559 O    2456 MOH    -0.6497 ****
15043 HO1    16.957182   15.562180  -17.381957 H    2456 MOH     0.4215 ****
15044 HC1    28.349457   19.009428  -11.587924 H    2457 MOH     0.0372 ****
15045 C1     28.733395   19.606287  -12.415239 C    2457 MOH     0.1166 ****
15046 HC2    29.421019   18.989016  -12.993653 H    2457 MOH     0.0372 ****
15047 HC3    29.234535   20.468100  -11.973298 H    2457 MOH     0.0372 ****
15048 O1     27.668184   20.045971  -13.202249 O    2457 MOH    -0.6497 ****
15049 HO1    27.138754   19.289895  -13.463879 H    2457 MOH     0.4215 ****
15050 HC1    18.815672   28.005588   -6.987488 H    2458 MOH     0.0372 ****
15051 C1     18.879181   27.082538   -7.563780 C    2458 MOH     0.1166 ****
15052 HC2    19.910906   26.878414   -7.849451 H    2458 MOH     0.0372 ****
15053 HC3    18.261993   27.194398   -8.454734 H    2458 MOH     0.0372 ****
15054 O1     18.361297   26.029258   -6.798690 O    2458 MOH    -0.6497 ****
15055 HO1    18.611290   25.204596   -7.222954 H    2458 MOH     0.4215 ****
15056 HC1     6.764640   27.313199  -15.469941 H    2459 MOH     0.0372 ****
15057 C1      6.598363   28.383626  -15.351147 C    2459 MOH     0.1166 ****
15058 HC2     6.951702   28.704509  -14.371097 H    2459 MOH     0.0372 ****
15059 HC3     5.531420   28.596731  -15.423272 H    2459 MOH     0.0372 ****
15060 O1      7.285410   29.098060  -16.360895 O    2459 MOH    -0.6497 ****
15061 HO1     7.194766   28.568154  -17.155683 H    2459 MOH     0.4215 ****
15062 HC1    28.241493   24.466075  -12.852231 H    2460 MOH     0.0372 ****
15063 C1     28.881774   23.590791  -12.743337 C    2460 MOH     0.1166 ****
15064 HC2    28.731663   23.189891  -11.740659 H    2460 MOH     0.0372 ****
15065 HC3    29.920427   23.903509  -12.849403 H    2460 MOH     0.0372 ****
15066 O1     28.502455   22.648962  -13.746721 O    2460 MOH    -0.6497 ****
15067 HO1    28.431441   21.775719  -13.354277 H    2460 MOH     0.4215 ****
15068 HC1     9.242627   26.864125  -15.793796 H    2461 MOH     0.0372 ****
15069 C1      9.509941   25.859426  -15.464991 C    2461 MOH     0.1166 ****
15070 HC2    10.454486   25.569978  -15.925318 H    2461 MOH     0.0372 ****
15071 HC3     8.747261   25.145808  -15.774704 H    2461 MOH     0.0372 ****
15072 O1      9.677372   25.867183  -14.035928 O    2461 MOH    -0.6497 ****
15073 HO1     8.848874   26.054977  -13.589037 H    2461 MOH     0.4215 ****
15074 HC1    12.124183   32.941718  -13.717023 H    2462 MOH     0.0372 ****
15075 C1     11.753524   32.544900  -12.772328 C    2462 MOH     0.1166 ****
15076 HC2    12.608002   32.422018  -12.106941 H    2462 MOH     0.0372 ****
15077 HC3    11.281829   31.569187  -12.888294 H    2462 MOH     0.0372 ****
15078 O1     10.898468   33.480197  -12.210179 O    2462 MOH    -0.6497 ****
15079 HO1    11.083220   33.481830  -11.268312 H    2462 MOH     0.4215 ****
15080 HC1    12.008135   19.887162   -1.565393 H    2463 MOH     0.0372 ****
15081 C1     12.902451   19.444621   -1.125573 C    2463 MOH     0.1166 ****
15082 HC2    12.968269   19.717739   -0.072691 H    2463 MOH     0.0372 ****
15083 HC3    13.792725   19.814494   -1.634689 H    2463 MOH     0.0372 ****
15084 O1     12.851066   18.032082   -1.241538 O    2463 MOH    -0.6497 ****
15085 HO1    13.756352   17.723855   -1.153150 H    2463 MOH     0.4215 ****
15086 HC1    10.661754   15.528703  -23.229731 H    2464 MOH     0.0372 ****
15087 C1     11.175596   15.837747  -22.319684 C    2464 MOH     0.1166 ****
15088 HC2    12.258705   15.811619  -22.435650 H    2464 MOH     0.0372 ****
15089 HC3    10.872487   15.198431  -21.489541 H    2464 MOH     0.0372 ****
15090 O1     10.736233   17.095152  -22.036841 O    2464 MOH    -0.6497 ****
15091 HO1    10.404256   17.457268  -22.862035 H    2464 MOH     0.4215 ****
15092 HC1    11.412310   28.266867   -7.978852 H    2465 MOH     0.0372 ****
15093 C1     11.345914   28.006404   -6.922434 C    2465 MOH     0.1166 ****
15094 HC2    11.453879   26.928220   -6.798690 H    2465 MOH     0.0372 ****
15095 HC3    10.362109   28.321164   -6.573830 H    2465 MOH     0.0372 ****
15096 O1     12.329719   28.725329   -6.199064 O    2465 MOH    -0.6497 ****
15097 HO1    13.152443   28.616327   -6.682018 H    2465 MOH     0.4215 ****
15098 HC1    18.958855   30.827808   -3.130220 H    2466 MOH     0.0372 ****
15099 C1     19.396486   29.924355   -3.555191 C    2466 MOH     0.1166 ****
15100 HC2    19.640128   30.119497   -4.598881 H    2466 MOH     0.0372 ****
15101 HC3    18.690964   29.098060   -3.461853 H    2466 MOH     0.0372 ****
15102 O1     20.532712   29.626742   -2.807780 O    2466 MOH    -0.6497 ****
15103 HO1    21.160292   30.352607   -2.855863 H    2466 MOH     0.4215 ****
15104 HC1    15.738973   23.629983   -3.763081 H    2467 MOH     0.0372 ****
15105 C1     15.328476   22.673457   -3.439933 C    2467 MOH     0.1166 ****
15106 HC2    16.107322   21.910849   -3.418720 H    2467 MOH     0.0372 ****
15107 HC3    14.543280   22.394623   -4.142090 H    2467 MOH     0.0372 ****
15108 O1     14.732651   22.817977   -2.184111 O    2467 MOH    -0.6497 ****
15109 HO1    15.353303   23.267050   -1.605698 H    2467 MOH     0.4215 ****
15110 HC1     4.038392   24.950666  -17.395393 H    2468 MOH     0.0372 ****
15111 C1      4.597267   25.583042  -16.705964 C    2468 MOH     0.1166 ****
15112 HC2     4.642300   26.583659  -17.136592 H    2468 MOH     0.0372 ****
15113 HC3     5.610517   25.188674  -16.625353 H    2468 MOH     0.0372 ****
15114 O1      3.932160   25.595290  -15.417615 O    2468 MOH    -0.6497 ****
15115 HO1     4.399236   24.977202  -14.851930 H    2468 MOH     0.4215 ****
15116 HC1    12.513317   18.737535  -19.496207 H    2469 MOH     0.0372 ****
15117 C1     11.631126   19.320922  -19.235284 C    2469 MOH     0.1166 ****
15118 HC2    11.935389   20.319497  -18.924157 H    2469 MOH     0.0372 ****
15119 HC3    11.095922   18.831024  -18.422112 H    2469 MOH     0.0372 ****
15120 O1     10.810133   19.376035  -20.402718 O    2469 MOH    -0.6497 ****
15121 HO1    10.719489   18.487279  -20.755564 H    2469 MOH     0.4215 ****
15122 HC1    20.050047    9.745050  -14.045120 H    2470 MOH     0.0372 ****
15123 C1     20.887782    9.973261  -14.704851 C    2470 MOH     0.1166 ****
15124 HC2    21.245162   10.974694  -14.469385 H    2470 MOH     0.0372 ****
15125 HC3    20.537331    9.928353  -15.735813 H    2470 MOH     0.0372 ****
15126 O1     21.968582    9.031432  -14.500497 O    2470 MOH    -0.6497 ****
15127 HO1    22.801698    9.419676  -14.778390 H    2470 MOH     0.4215 ****
15128 HC1    14.243635   20.600372  -14.429787 H    2471 MOH     0.0372 ****
15129 C1     13.931866   21.643855  -14.465142 C    2471 MOH     0.1166 ****
15130 HC2    14.737847   22.301134  -14.137044 H    2471 MOH     0.0372 ****
15131 HC3    13.088935   21.767146  -13.786320 H    2471 MOH     0.0372 ****
15132 O1     13.478646   21.990049  -15.759147 O    2471 MOH    -0.6497 ****
15133 HO1    13.267336   22.925754  -15.729449 H    2471 MOH     0.4215 ****
15134 HC1    20.939744   28.613878   -6.932333 H    2472 MOH     0.0372 ****
15135 C1     21.865236   28.913532   -6.438773 C    2472 MOH     0.1166 ****
15136 HC2    22.309219   28.059477   -5.926828 H    2472 MOH     0.0372 ****
15137 HC3    21.619285   29.665525   -5.689240 H    2472 MOH     0.0372 ****
15138 O1     22.747427   29.412820   -7.464785 O    2472 MOH    -0.6497 ****
15139 HO1    22.556902   30.350974   -7.539738 H    2472 MOH     0.4215 ****
15140 HC1     9.968934   19.771220  -13.613078 H    2473 MOH     0.0372 ****
15141 C1     10.740274   19.478097  -12.900315 C    2473 MOH     0.1166 ****
15142 HC2    11.638054   19.221717  -13.463172 H    2473 MOH     0.0372 ****
15143 HC3    10.410030   18.589749  -12.361499 H    2473 MOH     0.0372 ****
15144 O1     11.000659   20.555465  -11.991683 O    2473 MOH    -0.6497 ****
15145 HO1    10.334397   20.530562  -11.300839 H    2473 MOH     0.4215 ****
15146 HC1     9.839608   20.381959   -7.729950 H    2474 MOH     0.0372 ****
15147 C1     10.322850   20.231316   -8.695151 C    2474 MOH     0.1166 ****
15148 HC2    10.778379   19.241722   -8.714950 H    2474 MOH     0.0372 ****
15149 HC3    11.083220   21.000455   -8.833744 H    2474 MOH     0.0372 ****
15150 O1      9.291702   20.280714   -9.681565 O    2474 MOH    -0.6497 ****
15151 HO1     8.779015   21.081697   -9.551457 H    2474 MOH     0.4215 ****
15152 HC1     5.539503   21.809603  -14.063505 H    2475 MOH     0.0372 ****
15153 C1      6.127245   22.725304  -14.001987 C    2475 MOH     0.1166 ****
15154 HC2     6.593167   22.935960  -14.965067 H    2475 MOH     0.0372 ****
15155 HC3     6.915906   22.576702  -13.265182 H    2475 MOH     0.0372 ****
15156 O1      5.345513   23.850028  -13.626513 O    2475 MOH    -0.6497 ****
15157 HO1     4.945409   23.685913  -12.769500 H    2475 MOH     0.4215 ****
15158 HC1    19.274666   24.417085  -16.513630 H    2476 MOH     0.0372 ****
15159 C1     20.056398   25.090287  -16.865062 C    2476 MOH     0.1166 ****
15160 HC2    20.615850   24.655502  -17.693084 H    2476 MOH     0.0372 ****
15161 HC3    20.741713   25.295227  -16.043404 H    2476 MOH     0.0372 ****
15162 O1     19.482512   26.289720  -17.310540 O    2476 MOH    -0.6497 ****
15163 HO1    19.677656   26.933119  -16.624646 H    2476 MOH     0.4215 ****
15164 HC1    -8.116332  -18.995467  -22.863308 H    2477 MOH     0.0372 ****
15165 C1     -8.458123  -19.664994  -23.652439 C    2477 MOH     0.1166 ****
15166 HC2    -8.956377  -20.541095  -23.236660 H    2477 MOH     0.0372 ****
15167 HC3    -7.585747  -19.983019  -24.223074 H    2477 MOH     0.0372 ****
15168 O1     -9.239278  -18.935046  -24.574506 O    2477 MOH    -0.6497 ****
15169 HO1    -9.212143  -19.422086  -25.401114 H    2477 MOH     0.4215 ****
15170 HC1    -0.021881  -24.393325  -17.767896 H    2478 MOH     0.0372 ****
15171 C1     -0.733177  -25.219212  -17.778503 C    2478 MOH     0.1166 ****
15172 HC2    -0.371178  -25.950384  -18.501873 H    2478 MOH     0.0372 ****
15173 HC3    -1.722178  -24.846889  -18.048618 H    2478 MOH     0.0372 ****
15174 O1     -0.796685  -25.792801  -16.493690 O    2478 MOH    -0.6497 ****
15175 HO1    -1.072659  -25.108985  -15.879214 H    2478 MOH     0.4215 ****
15176 HC1    -4.856035  -24.738703  -20.886237 H    2479 MOH     0.0372 ****
15177 C1     -4.898759  -23.864644  -21.536068 C    2479 MOH     0.1166 ****
15178 HC2    -4.097974  -23.164498  -21.297773 H    2479 MOH     0.0372 ****
15179 HC3    -5.838108  -23.348618  -21.340907 H    2479 MOH     0.0372 ****
15180 O1     -4.898182  -24.219003  -22.927654 O    2479 MOH    -0.6497 ****
15181 HO1    -4.789063  -23.426593  -23.458692 H    2479 MOH     0.4215 ****
15182 HC1     2.555410  -29.526231  -20.588545 H    2480 MOH     0.0372 ****
15183 C1      2.302531  -28.661561  -19.974776 C    2480 MOH     0.1166 ****
15184 HC2     3.110244  -28.478258  -19.266963 H    2480 MOH     0.0372 ****
15185 HC3     1.384544  -28.894263  -19.435961 H    2480 MOH     0.0372 ****
15186 O1      2.110273  -27.553167  -20.831083 O    2480 MOH    -0.6497 ****
15187 HO1     1.424958  -27.824244  -21.446266 H    2480 MOH     0.4215 ****
15188 HC1    -3.844518  -33.598508  -16.704408 H    2481 MOH     0.0372 ****
15189 C1     -4.735946  -32.971847  -16.736227 C    2481 MOH     0.1166 ****
15190 HC2    -5.624488  -33.602590  -16.776532 H    2481 MOH     0.0372 ****
15191 HC3    -4.726709  -32.353759  -17.634253 H    2481 MOH     0.0372 ****
15192 O1     -4.725554  -32.124323  -15.614756 O    2481 MOH    -0.6497 ****
15193 HO1    -3.969803  -31.544202  -15.731429 H    2481 MOH     0.4215 ****
15194 HC1    -2.187522  -32.336612  -18.117914 H    2482 MOH     0.0372 ****
15195 C1     -1.962933  -31.270676  -18.067709 C    2482 MOH     0.1166 ****
15196 HC2    -2.322045  -30.722807  -18.938865 H    2482 MOH     0.0372 ****
15197 HC3    -0.876937  -31.224136  -18.139834 H    2482 MOH     0.0372 ****
15198 O1     -2.323777  -30.672592  -16.801281 O    2482 MOH    -0.6497 ****
15199 HO1    -2.395946  -29.723823  -16.927146 H    2482 MOH     0.4215 ****
15200 HC1     1.867209  -26.530097  -24.141757 H    2483 MOH     0.0372 ****
15201 C1      1.527727  -27.275967  -24.860884 C    2483 MOH     0.1166 ****
15202 HC2     1.021391  -28.113284  -24.379345 H    2483 MOH     0.0372 ****
15203 HC3     2.414537  -27.672784  -25.355859 H    2483 MOH     0.0372 ****
15204 O1      0.686527  -26.655429  -25.815478 O    2483 MOH    -0.6497 ****
15205 HO1     1.215958  -25.970389  -26.231257 H    2483 MOH     0.4215 ****
15206 HC1    -0.987788  -24.319024  -22.211355 H    2484 MOH     0.0372 ****
15207 C1     -1.299558  -24.737887  -21.253933 C    2484 MOH     0.1166 ****
15208 HC2    -1.826678  -23.991609  -20.661377 H    2484 MOH     0.0372 ****
15209 HC3    -0.406974  -25.071426  -20.725724 H    2484 MOH     0.0372 ****
15210 O1     -2.114199  -25.851997  -21.480914 O    2484 MOH    -0.6497 ****
15211 HO1    -2.800091  -25.610722  -22.106703 H    2484 MOH     0.4215 ****
15212 HC1     3.180681  -30.728931  -22.636326 H    2485 MOH     0.0372 ****
15213 C1      4.039200  -30.367223  -23.202012 C    2485 MOH     0.1166 ****
15214 HC2     3.691058  -29.847931  -24.094380 H    2485 MOH     0.0372 ****
15215 HC3     4.668512  -31.207806  -23.495461 H    2485 MOH     0.0372 ****
15216 O1      4.788601  -29.477650  -22.406517 O    2485 MOH    -0.6497 ****
15217 HO1     4.956033  -29.896104  -21.558696 H    2485 MOH     0.4215 ****
15218 HC1    -4.237693  -26.580720  -17.335147 H    2486 MOH     0.0372 ****
15219 C1     -3.800062  -27.484173  -17.760118 C    2486 MOH     0.1166 ****
15220 HC2    -3.556420  -27.289031  -18.803808 H    2486 MOH     0.0372 ****
15221 HC3    -4.505584  -28.310468  -17.666780 H    2486 MOH     0.0372 ****
15222 O1     -2.663836  -27.781786  -17.012706 O    2486 MOH    -0.6497 ****
15223 HO1    -2.036257  -27.055921  -17.060789 H    2486 MOH     0.4215 ****
15224 HC1    -2.256804  -28.794650  -21.137260 H    2487 MOH     0.0372 ****
15225 C1     -1.331312  -28.494996  -20.643699 C    2487 MOH     0.1166 ****
15226 HC2    -0.887329  -29.349051  -20.131754 H    2487 MOH     0.0372 ****
15227 HC3    -1.577263  -27.743003  -19.894166 H    2487 MOH     0.0372 ****
15228 O1     -0.449121  -27.995708  -21.669711 O    2487 MOH    -0.6497 ****
15229 HO1    -0.639646  -27.057554  -21.744665 H    2487 MOH     0.4215 ****
15230 HC1     0.977974  -10.250543  -30.447028 H    2488 MOH     0.0372 ****
15231 C1     -0.058370  -10.111739  -30.140144 C    2488 MOH     0.1166 ****
15232 HC2    -0.621864   -9.747581  -30.998571 H    2488 MOH     0.0372 ****
15233 HC3    -0.128229   -9.361787  -29.351720 H    2488 MOH     0.0372 ****
15234 O1     -0.583759  -11.354447  -29.722951 O    2488 MOH    -0.6497 ****
15235 HO1    -1.346438  -11.202170  -29.160801 H    2488 MOH     0.4215 ****
15236 HC1     7.585748  -19.552480  -21.849316 H    2489 MOH     0.0372 ****
15237 C1      7.646947  -18.772726  -21.091298 C    2489 MOH     0.1166 ****
15238 HC2     8.007213  -19.218533  -20.163574 H    2489 MOH     0.0372 ****
15239 HC3     6.653904  -18.347332  -20.945634 H    2489 MOH     0.0372 ****
15240 O1      8.518168  -17.750064  -21.519098 O    2489 MOH    -0.6497 ****
15241 HO1     9.404978  -18.110139  -21.585566 H    2489 MOH     0.4215 ****
15242 HC1    13.844225  -14.803328  -27.629914 H    2490 MOH     0.0372 ****
15243 C1     14.277815  -14.610227  -26.649157 C    2490 MOH     0.1166 ****
15244 HC2    14.563603  -13.559396  -26.598246 H    2490 MOH     0.0372 ****
15245 HC3    15.165779  -15.229539  -26.522585 H    2490 MOH     0.0372 ****
15246 O1     13.323455  -14.924986  -25.641530 O    2490 MOH    -0.6497 ****
15247 HO1    13.524373  -15.816600  -25.348788 H    2490 MOH     0.4215 ****
15248 HC1     9.837414  -25.185082  -28.625521 H    2491 MOH     0.0372 ****
15249 C1      8.988709  -24.750298  -28.097312 C    2491 MOH     0.1166 ****
15250 HC2     8.852454  -23.723145  -28.435309 H    2491 MOH     0.0372 ****
15251 HC3     9.153254  -24.762545  -27.019681 H    2491 MOH     0.0372 ****
15252 O1      7.823039  -25.448402  -28.431066 O    2491 MOH    -0.6497 ****
15253 HO1     7.850174  -26.248977  -27.901443 H    2491 MOH     0.4215 ****
15254 HC1     2.027597  -11.701866  -25.778002 H    2492 MOH     0.0372 ****
15255 C1      2.631505  -11.150322  -25.057460 C    2492 MOH     0.1166 ****
15256 HC2     3.443260  -11.785557  -24.703907 H    2492 MOH     0.0372 ****
15257 HC3     1.983141  -10.864549  -24.228731 H    2492 MOH     0.0372 ****
15258 O1      3.136109  -10.026415  -25.712948 O    2492 MOH    -0.6497 ****
15259 HO1     3.949018   -9.764728  -25.273835 H    2492 MOH     0.4215 ****
15260 HC1     0.089432  -17.023382  -21.393233 H    2493 MOH     0.0372 ****
15261 C1     -0.930746  -17.316096  -21.145038 C    2493 MOH     0.1166 ****
15262 HC2    -1.091827  -17.258533  -20.069529 H    2493 MOH     0.0372 ****
15263 HC3    -1.139170  -18.338350  -21.461822 H    2493 MOH     0.0372 ****
15264 O1     -1.816979  -16.423666  -21.746079 O    2493 MOH    -0.6497 ****
15265 HO1    -1.365491  -16.047261  -22.505512 H    2493 MOH     0.4215 ****
15266 HC1    12.796911  -12.050510  -30.716436 H    2494 MOH     0.0372 ****
15267 C1     12.845409  -13.138083  -30.767347 C    2494 MOH     0.1166 ****
15268 HC2    12.467244  -13.492851  -31.725477 H    2494 MOH     0.0372 ****
15269 HC3    12.238614  -13.584707  -29.979630 H    2494 MOH     0.0372 ****
15270 O1     14.181975  -13.572460  -30.693808 O    2494 MOH    -0.6497 ****
15271 HO1    14.149643  -14.531843  -30.672595 H    2494 MOH     0.4215 ****
15272 HC1    -5.311680  -14.236680  -25.188982 H    2495 MOH     0.0372 ****
15273 C1     -4.271295  -14.209327  -25.514958 C    2495 MOH     0.1166 ****
15274 HC2    -3.687016  -14.849052  -24.852399 H    2495 MOH     0.0372 ****
15275 HC3    -3.930081  -13.175642  -25.461218 H    2495 MOH     0.0372 ****
15276 O1     -4.204322  -14.691468  -26.837955 O    2495 MOH    -0.6497 ****
15277 HO1    -4.798993  -15.444278  -26.881796 H    2495 MOH     0.4215 ****
15278 HC1    -8.088735  -15.318946  -26.489351 H    2496 MOH     0.0372 ****
15279 C1     -8.523480  -16.204436  -26.026196 C    2496 MOH     0.1166 ****
15280 HC2    -8.935708  -16.879271  -26.776437 H    2496 MOH     0.0372 ****
15281 HC3    -9.345626  -15.918254  -25.369294 H    2496 MOH     0.0372 ****
15282 O1     -7.618194  -16.907032  -25.230701 O    2496 MOH    -0.6497 ****
15283 HO1    -8.144738  -17.624732  -24.870077 H    2496 MOH     0.4215 ****
15284 HC1    17.592960  -14.384874  -28.463593 H    2497 MOH     0.0372 ****
15285 C1     17.675521  -13.445086  -27.917707 C    2497 MOH     0.1166 ****
15286 HC2    16.848755  -12.789439  -28.190650 H    2497 MOH     0.0372 ****
15287 HC3    18.632768  -12.982949  -28.162366 H    2497 MOH     0.0372 ****
15288 O1     17.634529  -13.803120  -26.576325 O    2497 MOH    -0.6497 ****
15289 HO1    17.858541  -13.060108  -26.012054 H    2497 MOH     0.4215 ****
15290 HC1     5.500359   -9.760645  -28.720273 H    2498 MOH     0.0372 ****
15291 C1      4.834674   -8.901691  -28.635420 C    2498 MOH     0.1166 ****
15292 HC2     3.792556   -9.221758  -28.642491 H    2498 MOH     0.0372 ****
15293 HC3     4.969774   -8.277071  -29.517890 H    2498 MOH     0.0372 ****
15294 O1      5.060418   -8.104790  -27.431925 O    2498 MOH    -0.6497 ****
15295 HO1     4.987671   -8.671847  -26.661885 H    2498 MOH     0.4215 ****
15296 HC1     5.574837  -20.414701  -19.770423 H    2499 MOH     0.0372 ****
15297 C1      5.874481  -21.461858  -19.785272 C    2499 MOH     0.1166 ****
15298 HC2     6.508412  -21.650468  -20.652185 H    2499 MOH     0.0372 ****
15299 HC3     5.006724  -22.115871  -19.864468 H    2499 MOH     0.0372 ****
15300 O1      6.579426  -21.772943  -18.591676 O    2499 MOH    -0.6497 ****
15301 HO1     7.013594  -22.621283  -18.710469 H    2499 MOH     0.4215 ****
15302 HC1     2.440979   -5.506698  -25.986598 H    2500 MOH     0.0372 ****
15303 C1      1.986605   -5.208677  -26.931293 C    2500 MOH     0.1166 ****
15304 HC2     0.905805   -5.343399  -26.883210 H    2500 MOH     0.0372 ****
15305 HC3     2.409225   -5.833297  -27.719010 H    2500 MOH     0.0372 ****
15306 O1      2.268352   -3.851251  -27.190801 O    2500 MOH    -0.6497 ****
15307 HO1     1.998729   -3.656925  -28.091655 H    2500 MOH     0.4215 ****
15308 HC1     3.481942   -2.593030  -22.863308 H    2501 MOH     0.0372 ****
15309 C1      3.140151   -3.262557  -23.652439 C    2501 MOH     0.1166 ****
15310 HC2     2.641897   -4.138658  -23.236660 H    2501 MOH     0.0372 ****
15311 HC3     4.012527   -3.580583  -24.223074 H    2501 MOH     0.0372 ****
15312 O1      2.358996   -2.532609  -24.574506 O    2501 MOH    -0.6497 ****
15313 HO1     2.386131   -3.019649  -25.401114 H    2501 MOH     0.4215 ****
15314 HC1     6.248604  -19.298958  -27.194337 H    2502 MOH     0.0372 ****
15315 C1      6.108308  -19.453276  -28.263482 C    2502 MOH     0.1166 ****
15316 HC2     5.912009  -18.498792  -28.752800 H    2502 MOH     0.0372 ****
15317 HC3     5.274037  -20.132193  -28.439552 H    2502 MOH     0.0372 ****
15318 O1      7.283794  -20.007677  -28.815025 O    2502 MOH    -0.6497 ****
15319 HO1     7.930426  -20.108515  -28.112868 H    2502 MOH     0.4215 ****
15320 HC1     9.011803  -11.262591  -25.903867 H    2503 MOH     0.0372 ****
15321 C1      9.494468  -12.228506  -26.050945 C    2503 MOH     0.1166 ****
15322 HC2     8.721396  -12.982541  -26.198730 H    2503 MOH     0.0372 ****
15323 HC3    10.059116  -12.471006  -25.151505 H    2503 MOH     0.0372 ****
15324 O1     10.402640  -12.200745  -27.173831 O    2503 MOH    -0.6497 ****
15325 HO1    11.113935  -11.596538  -26.944728 H    2503 MOH     0.4215 ****
15326 HC1    12.710309  -25.387982  -26.948971 H    2504 MOH     0.0372 ****
15327 C1     12.544032  -25.301025  -25.874875 C    2504 MOH     0.1166 ****
15328 HC2    12.616201  -24.244886  -25.615367 H    2504 MOH     0.0372 ****
15329 HC3    13.330960  -25.855018  -25.362223 H    2504 MOH     0.0372 ****
15330 O1     11.218436  -25.819908  -25.640823 O    2504 MOH    -0.6497 ****
15331 HO1    10.907244  -25.471264  -24.802194 H    2504 MOH     0.4215 ****
15332 HC1    11.576393   -7.990889  -17.767896 H    2505 MOH     0.0372 ****
15333 C1     10.865097   -8.816775  -17.778503 C    2505 MOH     0.1166 ****
15334 HC2    11.227096   -9.547948  -18.501873 H    2505 MOH     0.0372 ****
15335 HC3     9.876096   -8.444453  -18.048618 H    2505 MOH     0.0372 ****
15336 O1     10.801589   -9.390364  -16.493690 O    2505 MOH    -0.6497 ****
15337 HO1    10.525615   -8.706548  -15.879214 H    2505 MOH     0.4215 ****
15338 HC1     7.506073   -6.461183  -34.775936 H    2506 MOH     0.0372 ****
15339 C1      6.925259   -6.079879  -33.935893 C    2506 MOH     0.1166 ****
15340 HC2     7.222594   -5.072730  -33.643858 H    2506 MOH     0.0372 ****
15341 HC3     7.133105   -6.735117  -33.089486 H    2506 MOH     0.0372 ****
15342 O1      5.545969   -6.123561  -34.220857 O    2506 MOH    -0.6497 ****
15343 HO1     5.140669   -6.798396  -33.671435 H    2506 MOH     0.4215 ****
15344 HC1    -3.916224  -16.818033  -23.750020 H    2507 MOH     0.0372 ****
15345 C1     -4.307668  -17.587173  -24.414700 C    2507 MOH     0.1166 ****
15346 HC2    -3.808260  -17.553289  -25.382729 H    2507 MOH     0.0372 ****
15347 HC3    -5.379230  -17.424690  -24.539151 H    2507 MOH     0.0372 ****
15348 O1     -4.166794  -18.853968  -23.829923 O    2507 MOH    -0.6497 ****
15349 HO1    -4.613086  -18.854376  -22.980687 H    2507 MOH     0.4215 ****
15350 HC1    12.303854  -19.249969  -28.130546 H    2508 MOH     0.0372 ****
15351 C1     12.287111  -20.257117  -28.548446 C    2508 MOH     0.1166 ****
15352 HC2    12.788828  -20.915622  -27.840632 H    2508 MOH     0.0372 ****
15353 HC3    12.838480  -20.285694  -29.488898 H    2508 MOH     0.0372 ****
15354 O1     10.944194  -20.692718  -28.697646 O    2508 MOH    -0.6497 ****
15355 HO1    10.452292  -20.431847  -27.914878 H    2508 MOH     0.4215 ****
15356 HC1     6.438553  -15.458975  -28.998873 H    2509 MOH     0.0372 ****
15357 C1      5.375074  -15.258117  -29.130395 C    2509 MOH     0.1166 ****
15358 HC2     4.793104  -16.179125  -29.103525 H    2509 MOH     0.0372 ****
15359 HC3     5.209951  -14.787406  -30.099838 H    2509 MOH     0.0372 ****
15360 O1      4.924740  -14.367727  -28.151052 O    2509 MOH    -0.6497 ****
15361 HO1     5.035014  -13.473255  -28.481271 H    2509 MOH     0.4215 ****
15362 HC1    10.151492  -12.531426  -31.795481 H    2510 MOH     0.0372 ****
15363 C1      9.747347  -12.185640  -32.746539 C    2510 MOH     0.1166 ****
15364 HC2     8.814349  -12.709014  -32.958671 H    2510 MOH     0.0372 ****
15365 HC3    10.468458  -12.330568  -33.550520 H    2510 MOH     0.0372 ****
15366 O1      9.500819  -10.819641  -32.592390 O    2510 MOH    -0.6497 ****
15367 HO1    10.325275  -10.364036  -32.404299 H    2510 MOH     0.4215 ****
15368 HC1     5.918937  -23.787240  -26.591882 H    2511 MOH     0.0372 ****
15369 C1      5.733031  -23.201404  -27.492029 C    2511 MOH     0.1166 ****
15370 HC2     5.750929  -23.825207  -28.385812 H    2511 MOH     0.0372 ****
15371 HC3     6.480699  -22.415934  -27.600923 H    2511 MOH     0.0372 ****
15372 O1      4.490573  -22.613118  -27.362628 O    2511 MOH    -0.6497 ****
15373 HO1     4.192083  -22.502483  -28.268432 H    2511 MOH     0.4215 ****
15374 HC1     7.103660  -20.212210  -25.172718 H    2512 MOH     0.0372 ****
15375 C1      7.857680  -20.965836  -25.400407 C    2512 MOH     0.1166 ****
15376 HC2     7.371551  -21.855409  -25.799922 H    2512 MOH     0.0372 ****
15377 HC3     8.346695  -21.255284  -24.470561 H    2512 MOH     0.0372 ****
15378 O1      8.791832  -20.423682  -26.345101 O    2512 MOH    -0.6497 ****
15379 HO1     9.008339  -19.525944  -26.085593 H    2512 MOH     0.4215 ****
15380 HC1     5.349093  -11.859450  -34.259041 H    2513 MOH     0.0372 ****
15381 C1      5.111802  -12.146040  -33.233736 C    2513 MOH     0.1166 ****
15382 HC2     5.873904  -12.808627  -32.824321 H    2513 MOH     0.0372 ****
15383 HC3     4.158597  -12.674722  -33.252828 H    2513 MOH     0.0372 ****
15384 O1      5.010188  -11.019683  -32.395814 O    2513 MOH    -0.6497 ****
15385 HO1     5.783838  -10.463241  -32.515315 H    2513 MOH     0.4215 ****
15386 HC1     2.446176  -22.436346  -25.684664 H    2514 MOH     0.0372 ****
15387 C1      2.534510  -21.450427  -25.228580 C    2514 MOH     0.1166 ****
15388 HC2     1.933489  -21.418583  -24.320655 H    2514 MOH     0.0372 ****
15389 HC3     2.182327  -20.715172  -25.951950 H    2514 MOH     0.0372 ****
15390 O1      3.874540  -21.246711  -24.920988 O    2514 MOH    -0.6497 ****
15391 HO1     4.359514  -21.713339  -25.604761 H    2514 MOH     0.4215 ****
15392 HC1    12.391034  -10.644095  -33.462131 H    2515 MOH     0.0372 ****
15393 C1     12.811345   -9.760645  -32.981299 C    2515 MOH     0.1166 ****
15394 HC2    13.064802   -9.018858  -33.738610 H    2515 MOH     0.0372 ****
15395 HC3    13.698155  -10.043561  -32.414906 H    2515 MOH     0.0372 ****
15396 O1     11.806178   -9.264215  -32.158226 O    2515 MOH    -0.6497 ****
15397 HO1    12.162403   -9.067848  -31.289192 H    2515 MOH     0.4215 ****
15398 HC1     6.742239   -8.336267  -20.886237 H    2516 MOH     0.0372 ****
15399 C1      6.699515   -7.462207  -21.536068 C    2516 MOH     0.1166 ****
15400 HC2     7.500300   -6.762062  -21.297773 H    2516 MOH     0.0372 ****
15401 HC3     5.760166   -6.946182  -21.340907 H    2516 MOH     0.0372 ****
15402 O1      6.700092   -7.816567  -22.927654 O    2516 MOH    -0.6497 ****
15403 HO1     6.809212   -7.024157  -23.458692 H    2516 MOH     0.4215 ****
15404 HC1     4.409744  -27.273680  -24.870784 H    2517 MOH     0.0372 ****
15405 C1      5.485925  -27.265515  -25.040489 C    2517 MOH     0.1166 ****
15406 HC2     5.906236  -26.405336  -24.520766 H    2517 MOH     0.0372 ****
15407 HC3     5.689729  -27.205095  -26.109635 H    2517 MOH     0.0372 ****
15408 O1      6.079441  -28.410244  -24.539858 O    2517 MOH    -0.6497 ****
15409 HO1     5.617561  -28.671523  -23.740827 H    2517 MOH     0.4215 ****
15410 HC1     1.055916  -12.605728  -32.272071 H    2518 MOH     0.0372 ****
15411 C1      0.473370  -13.478562  -31.976500 C    2518 MOH     0.1166 ****
15412 HC2     0.809388  -14.393447  -32.463696 H    2518 MOH     0.0372 ****
15413 HC3    -0.546808  -13.298525  -32.313790 H    2518 MOH     0.0372 ****
15414 O1      0.466442  -13.625532  -30.573600 O    2518 MOH    -0.6497 ****
15415 HO1     0.279957  -12.763720  -30.192470 H    2518 MOH     0.4215 ****
15416 HC1     0.225109  -15.620233  -28.001146 H    2519 MOH     0.0372 ****
15417 C1      1.256834  -15.903966  -28.206914 C    2519 MOH     0.1166 ****
15418 HC2     1.527611  -16.729852  -27.550011 H    2519 MOH     0.0372 ****
15419 HC3     1.905198  -15.053176  -27.996196 H    2519 MOH     0.0372 ****
15420 O1      1.394821  -16.223216  -29.568801 O    2519 MOH    -0.6497 ****
15421 HO1     1.098063  -15.430398  -30.021350 H    2519 MOH     0.4215 ****
15422 HC1    11.850634  -20.182408  -20.358028 H    2520 MOH     0.0372 ****
15423 C1     11.925690  -19.140558  -20.667741 C    2520 MOH     0.1166 ****
15424 HC2    12.964343  -18.916021  -20.910986 H    2520 MOH     0.0372 ****
15425 HC3    11.563691  -18.539208  -19.832648 H    2520 MOH     0.0372 ****
15426 O1     11.037725  -18.982974  -21.743958 O    2520 MOH    -0.6497 ****
15427 HO1    11.404920  -19.503491  -22.461671 H    2520 MOH     0.4215 ****
15428 HC1     1.575531  -24.095059  -19.809313 H    2521 MOH     0.0372 ****
15429 C1      2.567996  -24.074239  -20.259740 C    2521 MOH     0.1166 ****
15430 HC2     3.091076  -23.163028  -19.969827 H    2521 MOH     0.0372 ****
15431 HC3     2.507952  -24.129760  -21.345856 H    2521 MOH     0.0372 ****
15432 O1      3.302963  -25.138950  -19.811435 O    2521 MOH    -0.6497 ****
15433 HO1     2.856094  -25.935034  -20.107005 H    2521 MOH     0.4215 ****
15434 HC1    -0.484454  -11.865573  -26.804014 H    2522 MOH     0.0372 ****
15435 C1     -0.724055  -12.498358  -25.949829 C    2522 MOH     0.1166 ****
15436 HC2    -1.769636  -12.373843  -25.669107 H    2522 MOH     0.0372 ****
15437 HC3    -0.091856  -12.190947  -25.116150 H    2522 MOH     0.0372 ****
15438 O1     -0.422101  -13.848435  -26.265906 O    2522 MOH    -0.6497 ****
15439 HO1    -0.884558  -14.121553  -27.061401 H    2522 MOH     0.4215 ****
15440 HC1    10.473076  -11.709214  -36.336520 H    2523 MOH     0.0372 ****
15441 C1     11.216704  -12.230139  -36.938975 C    2523 MOH     0.1166 ****
15442 HC2    12.132381  -11.640629  -36.987058 H    2523 MOH     0.0372 ****
15443 HC3    10.880686  -12.351389  -37.969230 H    2523 MOH     0.0372 ****
15444 O1     11.555031  -13.458967  -36.354905 O    2523 MOH    -0.6497 ****
15445 HO1    10.851241  -13.730452  -35.761642 H    2523 MOH     0.4215 ****
15446 HC1    11.188991  -17.386315  -31.676687 H    2524 MOH     0.0372 ****
15447 C1     11.149731  -18.455926  -31.881747 C    2524 MOH     0.1166 ****
15448 HC2    10.371463  -18.884178  -31.250301 H    2524 MOH     0.0372 ****
15449 HC3    12.118525  -18.892343  -31.637796 H    2524 MOH     0.0372 ****
15450 O1     10.861056  -18.747823  -33.249999 O    2524 MOH    -0.6497 ****
15451 HO1    11.290604  -19.562279  -33.522235 H    2524 MOH     0.4215 ****
15452 HC1     8.750841  -23.492076  -24.283178 H    2525 MOH     0.0372 ****
15453 C1      9.001988  -24.012593  -23.358989 C    2525 MOH     0.1166 ****
15454 HC2     8.335148  -24.866240  -23.238074 H    2525 MOH     0.0372 ****
15455 HC3     8.879012  -23.342658  -22.508340 H    2525 MOH     0.0372 ****
15456 O1     10.342018  -24.443295  -23.455863 O    2525 MOH    -0.6497 ****
15457 HO1    10.531966  -24.998921  -22.697137 H    2525 MOH     0.4215 ****
15458 HC1     0.277071  -17.263841  -25.062410 H    2526 MOH     0.0372 ****
15459 C1     -0.732715  -16.864574  -24.970486 C    2526 MOH     0.1166 ****
15460 HC2    -1.345284  -17.605953  -24.457126 H    2526 MOH     0.0372 ****
15461 HC3    -1.133973  -16.672697  -25.966092 H    2526 MOH     0.0372 ****
15462 O1     -0.664588  -15.675755  -24.208225 O    2526 MOH    -0.6497 ****
15463 HO1    -0.330302  -14.982549  -24.782396 H    2526 MOH     0.4215 ****
15464 HC1    -3.979156  -10.027640  -26.638551 H    2527 MOH     0.0372 ****
15465 C1     -3.116594   -9.564686  -27.117969 C    2527 MOH     0.1166 ****
15466 HC2    -2.329666   -9.449968  -26.371972 H    2527 MOH     0.0372 ****
15467 HC3    -3.433560   -8.572643  -27.440410 H    2527 MOH     0.0372 ****
15468 O1     -2.733811  -10.352197  -28.276917 O    2527 MOH    -0.6497 ****
15469 HO1    -3.427786  -10.306065  -28.938062 H    2527 MOH     0.4215 ****
15470 HC1     2.707138  -14.590222  -20.377827 H    2528 MOH     0.0372 ****
15471 C1      3.315088  -13.719429  -20.626022 C    2528 MOH     0.1166 ****
15472 HC2     4.364710  -13.988873  -20.740573 H    2528 MOH     0.0372 ****
15473 HC3     3.258507  -12.997238  -19.810728 H    2528 MOH     0.0372 ****
15474 O1      2.920180  -13.157271  -21.835882 O    2528 MOH    -0.6497 ****
15475 HO1     3.201927  -13.755763  -22.531675 H    2528 MOH     0.4215 ****
15476 HC1     8.287806   -8.340349  -31.065746 H    2529 MOH     0.0372 ****
15477 C1      7.272824   -8.723695  -31.169691 C    2529 MOH     0.1166 ****
15478 HC2     6.551713   -7.906382  -31.148478 H    2529 MOH     0.0372 ****
15479 HC3     7.037842   -9.418533  -30.363589 H    2529 MOH     0.0372 ****
15480 O1      7.145230   -9.435680  -32.351974 O    2529 MOH    -0.6497 ****
15481 HO1     7.865763  -10.068873  -32.383793 H    2529 MOH     0.4215 ****
15482 HC1    11.161855  -16.622483  -23.805881 H    2530 MOH     0.0372 ****
15483 C1     10.539472  -15.728010  -23.815073 C    2530 MOH     0.1166 ****
15484 HC2    10.983454  -14.940908  -23.205547 H    2530 MOH     0.0372 ****
15485 HC3     9.567791  -16.006028  -23.405659 H    2530 MOH     0.0372 ****
15486 O1     10.359916  -15.275263  -25.136656 O    2530 MOH    -0.6497 ****
15487 HO1    11.217281  -14.999696  -25.469703 H    2530 MOH     0.4215 ****
15488 HC1     2.902282  -10.654709  -29.623956 H    2531 MOH     0.0372 ****
15489 C1      3.083570  -11.692884  -29.344648 C    2531 MOH     0.1166 ****
15490 HC2     2.424236  -12.330160  -29.933668 H    2531 MOH     0.0372 ****
15491 HC3     2.858981  -11.847611  -28.288938 H    2531 MOH     0.0372 ****
15492 O1      4.413785  -12.088477  -29.585772 O    2531 MOH    -0.6497 ****
15493 HO1     4.593341  -11.980291  -30.522688 H    2531 MOH     0.4215 ****
15494 HC1     6.790736  -16.442853  -25.965385 H    2532 MOH     0.0372 ****
15495 C1      7.244534  -15.563486  -25.508594 C    2532 MOH     0.1166 ****
15496 HC2     8.081692  -15.246686  -26.130848 H    2532 MOH     0.0372 ****
15497 HC3     7.548220  -15.812518  -24.491775 H    2532 MOH     0.0372 ****
15498 O1      6.294215  -14.565728  -25.543949 O    2532 MOH    -0.6497 ****
15499 HO1     5.966280  -14.510206  -26.444804 H    2532 MOH     0.4215 ****
15500 HC1    -1.376461   -4.970260  -28.294595 H    2533 MOH     0.0372 ****
15501 C1     -2.284055   -5.033947  -27.694968 C    2533 MOH     0.1166 ****
15502 HC2    -2.894892   -5.880654  -28.007510 H    2533 MOH     0.0372 ****
15503 HC3    -2.833115   -4.101916  -27.827197 H    2533 MOH     0.0372 ****
15504 O1     -1.912242   -5.217250  -26.370557 O    2533 MOH    -0.6497 ****
15505 HO1    -1.385121   -6.019866  -26.371972 H    2533 MOH     0.4215 ****
15506 HC1    14.153684  -13.123795  -20.588545 H    2534 MOH     0.0372 ****
15507 C1     13.900805  -12.259125  -19.974776 C    2534 MOH     0.1166 ****
15508 HC2    14.708518  -12.075821  -19.266963 H    2534 MOH     0.0372 ****
15509 HC3    12.982818  -12.491826  -19.435961 H    2534 MOH     0.0372 ****
15510 O1     13.708547  -11.150731  -20.831083 O    2534 MOH    -0.6497 ****
15511 HO1    13.023232  -11.421808  -21.446266 H    2534 MOH     0.4215 ****
15512 HC1    10.413032  -20.383266  -24.122665 H    2535 MOH     0.0372 ****
15513 C1     11.235756  -21.074022  -24.307927 C    2535 MOH     0.1166 ****
15514 HC2    11.511152  -20.952772  -25.355152 H    2535 MOH     0.0372 ****
15515 HC3    10.927451  -22.113830  -24.201154 H    2535 MOH     0.0372 ****
15516 O1     12.325793  -20.763345  -23.423336 O    2535 MOH    -0.6497 ****
15517 HO1    12.936630  -21.503907  -23.410608 H    2535 MOH     0.4215 ****
15518 HC1    15.247186  -19.425515  -25.187568 H    2536 MOH     0.0372 ****
15519 C1     14.415801  -18.742108  -25.357273 C    2536 MOH     0.1166 ****
15520 HC2    13.493773  -19.202203  -25.000184 H    2536 MOH     0.0372 ****
15521 HC3    14.345365  -18.553905  -26.428540 H    2536 MOH     0.0372 ****
15522 O1     14.743736  -17.521445  -24.705321 O    2536 MOH    -0.6497 ****
15523 HO1    15.356882  -17.718629  -23.993264 H    2536 MOH     0.4215 ****
15524 HC1     7.753757  -17.196071  -16.704408 H    2537 MOH     0.0372 ****
15525 C1      6.862328  -16.569410  -16.736227 C    2537 MOH     0.1166 ****
15526 HC2     5.973786  -17.200154  -16.776532 H    2537 MOH     0.0372 ****
15527 HC3     6.871565  -15.951322  -17.634253 H    2537 MOH     0.0372 ****
15528 O1      6.872720  -15.721887  -15.614756 O    2537 MOH    -0.6497 ****
15529 HO1     7.628472  -15.141766  -15.731429 H    2537 MOH     0.4215 ****
15530 HC1    15.007008  -16.599212  -29.165043 H    2538 MOH     0.0372 ****
15531 C1     13.997222  -16.920096  -29.421016 C    2538 MOH     0.1166 ****
15532 HC2    13.299783  -16.489394  -28.701888 H    2538 MOH     0.0372 ****
15533 HC3    13.915816  -18.006444  -29.386368 H    2538 MOH     0.0372 ****
15534 O1     13.642152  -16.460816  -30.693101 O    2538 MOH    -0.6497 ****
15535 HO1    14.240864  -16.868248  -31.322426 H    2538 MOH     0.4215 ****
15536 HC1     9.410752  -15.934176  -18.117914 H    2539 MOH     0.0372 ****
15537 C1      9.635341  -14.868240  -18.067709 C    2539 MOH     0.1166 ****
15538 HC2     9.276229  -14.320370  -18.938865 H    2539 MOH     0.0372 ****
15539 HC3    10.721337  -14.821699  -18.139834 H    2539 MOH     0.0372 ****
15540 O1      9.274497  -14.270156  -16.801281 O    2539 MOH    -0.6497 ****
15541 HO1     9.202328  -13.321387  -16.927146 H    2539 MOH     0.4215 ****
15542 HC1     8.497384  -29.385141  -26.750274 H    2540 MOH     0.0372 ****
15543 C1      9.078775  -28.627840  -26.223479 C    2540 MOH     0.1166 ****
15544 HC2    10.132440  -28.871972  -26.360658 H    2540 MOH     0.0372 ****
15545 HC3     8.848990  -28.617226  -25.158576 H    2540 MOH     0.0372 ****
15546 O1      8.950604  -27.367578  -26.775729 O    2540 MOH    -0.6497 ****
15547 HO1     9.749079  -26.891152  -26.534606 H    2540 MOH     0.4215 ****
15548 HC1     3.652838  -18.028081  -21.668297 H    2541 MOH     0.0372 ****
15549 C1      3.998093  -18.871114  -22.265802 C    2541 MOH     0.1166 ****
15550 HC2     4.738256  -19.403062  -21.666883 H    2541 MOH     0.0372 ****
15551 HC3     4.439766  -18.485319  -23.184334 H    2541 MOH     0.0372 ****
15552 O1      2.945584  -19.788856  -22.599557 O    2541 MOH    -0.6497 ****
15553 HO1     3.224444  -20.302024  -23.361111 H    2541 MOH     0.4215 ****
15554 HC1    10.810249   -9.490793  -27.890837 H    2542 MOH     0.0372 ****
15555 C1     10.317769   -9.054376  -28.759871 C    2542 MOH     0.1166 ****
15556 HC2     9.375534   -8.566927  -28.509555 H    2542 MOH     0.0372 ****
15557 HC3    10.065467   -9.888835  -29.414652 H    2542 MOH     0.0372 ****
15558 O1     11.155504   -8.129285  -29.459907 O    2542 MOH    -0.6497 ****
15559 HO1    10.614527   -7.429548  -29.831845 H    2542 MOH     0.4215 ****
15560 HC1     9.685571  -16.326911  -28.245097 H    2543 MOH     0.0372 ****
15561 C1     10.348946  -17.148715  -27.975690 C    2543 MOH     0.1166 ****
15562 HC2    11.365083  -16.762512  -27.897908 H    2543 MOH     0.0372 ****
15563 HC3    10.335090  -17.931327  -28.734415 H    2543 MOH     0.0372 ****
15564 O1      9.970782  -17.575742  -26.688755 O    2543 MOH    -0.6497 ****
15565 HO1    10.024475  -16.806602  -26.117413 H    2543 MOH     0.4215 ****
15566 HC1    13.465483  -10.127660  -24.141757 H    2544 MOH     0.0372 ****
15567 C1     13.126001  -10.873530  -24.860884 C    2544 MOH     0.1166 ****
15568 HC2    12.619665  -11.710847  -24.379345 H    2544 MOH     0.0372 ****
15569 HC3    14.012811  -11.270347  -25.355859 H    2544 MOH     0.0372 ****
15570 O1     12.284802  -10.252993  -25.815478 O    2544 MOH    -0.6497 ****
15571 HO1    12.814232   -9.567952  -26.231257 H    2544 MOH     0.4215 ****
15572 HC1     6.834038  -12.631447  -29.978923 H    2545 MOH     0.0372 ****
15573 C1      7.490485  -12.355880  -29.153730 C    2545 MOH     0.1166 ****
15574 HC2     6.943734  -12.391805  -28.210449 H    2545 MOH     0.0372 ****
15575 HC3     7.836895  -11.333218  -29.304343 H    2545 MOH     0.0372 ****
15576 O1      8.609390  -13.227898  -29.088676 O    2545 MOH    -0.6497 ****
15577 HO1     9.214453  -12.901299  -28.418339 H    2545 MOH     0.4215 ****
15578 HC1    10.610486   -7.916588  -22.211355 H    2546 MOH     0.0372 ****
15579 C1     10.298717   -8.335450  -21.253933 C    2546 MOH     0.1166 ****
15580 HC2     9.771596   -7.589173  -20.661377 H    2546 MOH     0.0372 ****
15581 HC3    11.191300   -8.668989  -20.725724 H    2546 MOH     0.0372 ****
15582 O1      9.484075   -9.449560  -21.480914 O    2546 MOH    -0.6497 ****
15583 HO1     8.798183   -9.208285  -22.106703 H    2546 MOH     0.4215 ****
15584 HC1     3.290262   -2.522403  -29.930840 H    2547 MOH     0.0372 ****
15585 C1      2.382667   -2.142732  -30.400359 C    2547 MOH     0.1166 ****
15586 HC2     2.513148   -2.162736  -31.482939 H    2547 MOH     0.0372 ****
15587 HC3     2.239484   -1.111905  -30.078625 H    2547 MOH     0.0372 ****
15588 O1      1.242400   -2.935959  -30.026299 O    2547 MOH    -0.6497 ****
15589 HO1     0.469328   -2.430955  -30.288636 H    2547 MOH     0.4215 ****
15590 HC1     5.447820  -10.992330  -23.419094 H    2548 MOH     0.0372 ****
15591 C1      6.029789  -10.749831  -24.308634 C    2548 MOH     0.1166 ****
15592 HC2     5.993416  -11.571635  -25.023519 H    2548 MOH     0.0372 ****
15593 HC3     7.056895  -10.606536  -23.971344 H    2548 MOH     0.0372 ****
15594 O1      5.563867   -9.505490  -24.840378 O    2548 MOH    -0.6497 ****
15595 HO1     5.979559   -8.828206  -24.302270 H    2548 MOH     0.4215 ****
15596 HC1     2.942119  -15.558587  -25.747596 H    2549 MOH     0.0372 ****
15597 C1      3.104932  -15.782716  -24.693300 C    2549 MOH     0.1166 ****
15598 HC2     3.672468  -16.709439  -24.601376 H    2549 MOH     0.0372 ****
15599 HC3     2.121127  -15.900291  -24.239337 H    2549 MOH     0.0372 ****
15600 O1      3.797753  -14.706165  -24.101452 O    2549 MOH    -0.6497 ****
15601 HO1     4.636065  -14.615534  -24.559657 H    2549 MOH     0.4215 ****
15602 HC1     0.877515  -21.624749  -20.988060 H    2550 MOH     0.0372 ****
15603 C1      0.484339  -21.189964  -20.069529 C    2550 MOH     0.1166 ****
15604 HC2     0.300165  -20.125253  -20.210950 H    2550 MOH     0.0372 ****
15605 HC3     1.183510  -21.334076  -19.245749 H    2550 MOH     0.0372 ****
15606 O1     -0.680176  -21.850918  -19.740724 O    2550 MOH    -0.6497 ****
15607 HO1    -1.104529  -21.401437  -19.006040 H    2550 MOH     0.4215 ****
15608 HC1     5.800003   -8.382807  -35.773663 H    2551 MOH     0.0372 ****
15609 C1      4.952453   -9.047436  -35.603958 C    2551 MOH     0.1166 ****
15610 HC2     4.087005   -8.403628  -35.447687 H    2551 MOH     0.0372 ****
15611 HC3     5.185125   -9.649194  -34.725731 H    2551 MOH     0.0372 ****
15612 O1      4.819085   -9.749214  -36.819474 O    2551 MOH    -0.6497 ****
15613 HO1     5.664903  -10.155013  -37.024535 H    2551 MOH     0.4215 ****
15614 HC1    16.751183  -21.996663  -25.792851 H    2552 MOH     0.0372 ****
15615 C1     17.135121  -21.399804  -26.620166 C    2552 MOH     0.1166 ****
15616 HC2    17.822745  -22.017075  -27.198579 H    2552 MOH     0.0372 ****
15617 HC3    17.636261  -20.537992  -26.178224 H    2552 MOH     0.0372 ****
15618 O1     16.069910  -20.960121  -27.407176 O    2552 MOH    -0.6497 ****
15619 HO1    15.540480  -21.716196  -27.668805 H    2552 MOH     0.4215 ****
15620 HC1     7.217398  -13.000504  -21.192414 H    2553 MOH     0.0372 ****
15621 C1      7.280907  -13.923553  -21.768706 C    2553 MOH     0.1166 ****
15622 HC2     8.312632  -14.127677  -22.054377 H    2553 MOH     0.0372 ****
15623 HC3     6.663719  -13.811693  -22.659661 H    2553 MOH     0.0372 ****
15624 O1      6.763024  -14.976834  -21.003617 O    2553 MOH    -0.6497 ****
15625 HO1     7.013016  -15.801495  -21.427881 H    2553 MOH     0.4215 ****
15626 HC1    -4.833634  -13.692893  -29.674867 H    2554 MOH     0.0372 ****
15627 C1     -4.999911  -12.622466  -29.556073 C    2554 MOH     0.1166 ****
15628 HC2    -4.646572  -12.301583  -28.576023 H    2554 MOH     0.0372 ****
15629 HC3    -6.066854  -12.409360  -29.628198 H    2554 MOH     0.0372 ****
15630 O1     -4.312864  -11.908031  -30.565822 O    2554 MOH    -0.6497 ****
15631 HO1    -4.403508  -12.437938  -31.360610 H    2554 MOH     0.4215 ****
15632 HC1     1.829566   -7.376884  -32.523801 H    2555 MOH     0.0372 ****
15633 C1      2.700787   -8.032122  -32.542892 C    2555 MOH     0.1166 ****
15634 HC2     2.700210   -8.603670  -33.470617 H    2555 MOH     0.0372 ****
15635 HC3     2.673074   -8.741249  -31.714870 H    2555 MOH     0.0372 ****
15636 O1      3.879159   -7.247469  -32.469353 O    2555 MOH    -0.6497 ****
15637 HO1     3.849714   -6.736750  -31.656888 H    2555 MOH     0.4215 ****
15638 HC1    16.643219  -16.540016  -27.057158 H    2556 MOH     0.0372 ****
15639 C1     17.283500  -17.415301  -26.948263 C    2556 MOH     0.1166 ****
15640 HC2    17.133389  -17.816201  -25.945586 H    2556 MOH     0.0372 ****
15641 HC3    18.322153  -17.102583  -27.054329 H    2556 MOH     0.0372 ****
15642 O1     16.904181  -18.357130  -27.951648 O    2556 MOH    -0.6497 ****
15643 HO1    16.833167  -19.230373  -27.559204 H    2556 MOH     0.4215 ****
15644 HC1    -2.355647  -14.141966  -29.998722 H    2557 MOH     0.0372 ****
15645 C1     -2.088333  -15.146665  -29.669918 C    2557 MOH     0.1166 ****
15646 HC2    -1.143788  -15.436113  -30.130244 H    2557 MOH     0.0372 ****
15647 HC3    -2.851013  -15.860283  -29.979630 H    2557 MOH     0.0372 ****
15648 O1     -1.920902  -15.138908  -28.240855 O    2557 MOH    -0.6497 ****
15649 HO1    -2.749399  -14.951114  -27.793963 H    2557 MOH     0.4215 ****
15650 HC1    14.778955  -14.326494  -22.636326 H    2558 MOH     0.0372 ****
15651 C1     15.637475  -13.964786  -23.202012 C    2558 MOH     0.1166 ****
15652 HC2    15.289332  -13.445494  -24.094380 H    2558 MOH     0.0372 ****
15653 HC3    16.266786  -14.805369  -23.495461 H    2558 MOH     0.0372 ****
15654 O1     16.386875  -13.075213  -22.406517 O    2558 MOH    -0.6497 ****
15655 HO1    16.554307  -13.493668  -21.558696 H    2558 MOH     0.4215 ****
15656 HC1    15.578008  -13.005403  -32.568348 H    2559 MOH     0.0372 ****
15657 C1     15.131138  -12.591439  -33.472031 C    2559 MOH     0.1166 ****
15658 HC2    14.103455  -12.272597  -33.300204 H    2559 MOH     0.0372 ****
15659 HC3    15.161738  -13.363845  -34.241363 H    2559 MOH     0.0372 ****
15660 O1     15.941738  -11.527136  -33.860232 O    2559 MOH    -0.6497 ****
15661 HO1    16.123604  -10.980899  -33.092314 H    2559 MOH     0.4215 ****
15662 HC1     0.525909   -8.064374  -27.921950 H    2560 MOH     0.0372 ****
15663 C1      0.155250   -8.461191  -26.977255 C    2560 MOH     0.1166 ****
15664 HC2     1.009728   -8.584074  -26.311868 H    2560 MOH     0.0372 ****
15665 HC3    -0.316445   -9.436904  -27.093221 H    2560 MOH     0.0372 ****
15666 O1     -0.699806   -7.525894  -26.415105 O    2560 MOH    -0.6497 ****
15667 HO1    -0.515054   -7.524261  -25.473239 H    2560 MOH     0.4215 ****
15668 HC1     0.409861  -21.118929  -15.770320 H    2561 MOH     0.0372 ****
15669 C1      1.304177  -21.561470  -15.330499 C    2561 MOH     0.1166 ****
15670 HC2     1.369995  -21.288352  -14.277617 H    2561 MOH     0.0372 ****
15671 HC3     2.194451  -21.191597  -15.839616 H    2561 MOH     0.0372 ****
15672 O1      1.252792  -22.974009  -15.446465 O    2561 MOH    -0.6497 ****
15673 HO1     2.158078  -23.282237  -15.358076 H    2561 MOH     0.4215 ****
15674 HC1    -0.185964  -12.739225  -22.183778 H    2562 MOH     0.0372 ****
15675 C1     -0.252360  -12.999687  -21.127361 C    2562 MOH     0.1166 ****
15676 HC2    -0.144395  -14.077871  -21.003617 H    2562 MOH     0.0372 ****
15677 HC3    -1.236164  -12.684928  -20.778757 H    2562 MOH     0.0372 ****
15678 O1      0.731445  -12.280762  -20.403990 O    2562 MOH    -0.6497 ****
15679 HO1     1.554169  -12.389764  -20.886944 H    2562 MOH     0.4215 ****
15680 HC1     7.360581  -10.178283  -17.335147 H    2563 MOH     0.0372 ****
15681 C1      7.798213  -11.081737  -17.760118 C    2563 MOH     0.1166 ****
15682 HC2     8.041854  -10.886594  -18.803808 H    2563 MOH     0.0372 ****
15683 HC3     7.092690  -11.908031  -17.666780 H    2563 MOH     0.0372 ****
15684 O1      8.934438  -11.379350  -17.012706 O    2563 MOH    -0.6497 ****
15685 HO1     9.562018  -10.653484  -17.060789 H    2563 MOH     0.4215 ****
15686 HC1     4.140699  -17.376109  -17.968007 H    2564 MOH     0.0372 ****
15687 C1      3.730203  -18.332635  -17.644860 C    2564 MOH     0.1166 ****
15688 HC2     4.509048  -19.095242  -17.623646 H    2564 MOH     0.0372 ****
15689 HC3     2.945006  -18.611468  -18.347017 H    2564 MOH     0.0372 ****
15690 O1      3.134377  -18.188115  -16.389038 O    2564 MOH    -0.6497 ****
15691 HO1     3.755029  -17.739042  -15.810625 H    2564 MOH     0.4215 ****
15692 HC1     0.523599   -6.650610  -30.997157 H    2565 MOH     0.0372 ****
15693 C1      1.089980   -6.345648  -30.116809 C    2565 MOH     0.1166 ****
15694 HC2     1.475650   -7.239304  -29.625370 H    2565 MOH     0.0372 ****
15695 HC3     0.435842   -5.821866  -29.420309 H    2565 MOH     0.0372 ****
15696 O1      2.184636   -5.531193  -30.521981 O    2565 MOH    -0.6497 ****
15697 HO1     1.833607   -4.655909  -30.698758 H    2565 MOH     0.4215 ****
15698 HC1     2.645361  -20.405719  -28.634713 H    2566 MOH     0.0372 ****
15699 C1      2.333592  -19.362237  -28.670069 C    2566 MOH     0.1166 ****
15700 HC2     3.139573  -18.704957  -28.341971 H    2566 MOH     0.0372 ****
15701 HC3     1.490661  -19.238946  -27.991246 H    2566 MOH     0.0372 ****
15702 O1      1.880372  -19.016042  -29.964074 O    2566 MOH    -0.6497 ****
15703 HO1     1.669062  -18.080337  -29.934375 H    2566 MOH     0.4215 ****
15704 HC1     9.341470  -12.392214  -21.137260 H    2567 MOH     0.0372 ****
15705 C1     10.266962  -12.092559  -20.643699 C    2567 MOH     0.1166 ****
15706 HC2    10.710945  -12.946615  -20.131754 H    2567 MOH     0.0372 ****
15707 HC3    10.021011  -11.340566  -19.894166 H    2567 MOH     0.0372 ****
15708 O1     11.149154  -11.593272  -21.669711 O    2567 MOH    -0.6497 ****
15709 HO1    10.958628  -10.655117  -21.744665 H    2567 MOH     0.4215 ****
15710 HC1    -1.629340  -21.234872  -27.818005 H    2568 MOH     0.0372 ****
15711 C1     -0.858000  -21.527994  -27.105241 C    2568 MOH     0.1166 ****
15712 HC2     0.039780  -21.784374  -27.668098 H    2568 MOH     0.0372 ****
15713 HC3    -1.188244  -22.416342  -26.566426 H    2568 MOH     0.0372 ****
15714 O1     -0.597615  -20.450627  -26.196609 O    2568 MOH    -0.6497 ****
15715 HO1    -1.263877  -20.475530  -25.505766 H    2568 MOH     0.4215 ****
15716 HC1    -1.758666  -20.624132  -21.934876 H    2569 MOH     0.0372 ****
15717 C1     -1.275424  -20.774776  -22.900077 C    2569 MOH     0.1166 ****
15718 HC2    -0.819895  -21.764370  -22.919876 H    2569 MOH     0.0372 ****
15719 HC3    -0.515054  -20.005636  -23.038670 H    2569 MOH     0.0372 ****
15720 O1     -2.306572  -20.725378  -23.886491 O    2569 MOH    -0.6497 ****
15721 HO1    -2.819259  -19.924395  -23.756384 H    2569 MOH     0.4215 ****
15722 HC1     7.758375   -8.523245  -25.789316 H    2570 MOH     0.0372 ****
15723 C1      8.704075   -8.180316  -25.369294 C    2570 MOH     0.1166 ****
15724 HC2     8.590337   -7.205827  -24.893411 H    2570 MOH     0.0372 ****
15725 HC3     9.433846   -8.066823  -26.171153 H    2570 MOH     0.0372 ****
15726 O1      9.145748   -9.102549  -24.397022 O    2570 MOH    -0.6497 ****
15727 HO1     9.977133   -9.490793  -24.679158 H    2570 MOH     0.4215 ****
15728 HC1     7.676392  -16.589006  -30.718557 H    2571 MOH     0.0372 ****
15729 C1      8.458124  -15.915805  -31.069989 C    2571 MOH     0.1166 ****
15730 HC2     9.017576  -16.350589  -31.898011 H    2571 MOH     0.0372 ****
15731 HC3     9.143439  -15.710864  -30.248331 H    2571 MOH     0.0372 ****
15732 O1      7.884238  -14.716371  -31.515466 O    2571 MOH    -0.6497 ****
15733 HO1     8.079382  -14.072972  -30.829573 H    2571 MOH     0.4215 ****
15734 HC1    12.576248    6.151893  -30.447028 H    2572 MOH     0.0372 ****
15735 C1     11.539904    6.290698  -30.140144 C    2572 MOH     0.1166 ****
15736 HC2    10.976410    6.654855  -30.998571 H    2572 MOH     0.0372 ****
15737 HC3    11.470045    7.040650  -29.351720 H    2572 MOH     0.0372 ****
15738 O1     11.014516    5.047990  -29.722951 O    2572 MOH    -0.6497 ****
15739 HO1    10.251836    5.200267  -29.160801 H    2572 MOH     0.4215 ****
15740 HC1     7.074677   -4.389078  -26.355708 H    2573 MOH     0.0372 ****
15741 C1      6.273892   -4.783037  -25.729919 C    2573 MOH     0.1166 ****
15742 HC2     5.708089   -5.513393  -26.309039 H    2573 MOH     0.0372 ****
15743 HC3     5.601279   -4.006141  -25.368587 H    2573 MOH     0.0372 ****
15744 O1      6.770991   -5.524008  -24.685522 O    2573 MOH    -0.6497 ****
15745 HO1     7.315432   -4.927965  -24.166506 H    2573 MOH     0.4215 ****
15746 HC1    19.184022   -3.150044  -21.849316 H    2574 MOH     0.0372 ****
15747 C1     19.245221   -2.370290  -21.091298 C    2574 MOH     0.1166 ****
15748 HC2    19.605487   -2.816097  -20.163574 H    2574 MOH     0.0372 ****
15749 HC3    18.252178   -1.944895  -20.945634 H    2574 MOH     0.0372 ****
15750 O1     20.116442   -1.347628  -21.519098 O    2574 MOH    -0.6497 ****
15751 HO1    21.003252   -1.707703  -21.585566 H    2574 MOH     0.4215 ****
15752 HC1    25.442499    1.599108  -27.629914 H    2575 MOH     0.0372 ****
15753 C1     25.876089    1.792210  -26.649157 C    2575 MOH     0.1166 ****
15754 HC2    26.161877    2.843041  -26.598246 H    2575 MOH     0.0372 ****
15755 HC3    26.764053    1.172897  -26.522585 H    2575 MOH     0.0372 ****
15756 O1     24.921729    1.477450  -25.641530 O    2575 MOH    -0.6497 ****
15757 HO1    25.122647    0.585836  -25.348788 H    2575 MOH     0.4215 ****
15758 HC1    21.435688   -8.782646  -28.625521 H    2576 MOH     0.0372 ****
15759 C1     20.586983   -8.347861  -28.097312 C    2576 MOH     0.1166 ****
15760 HC2    20.450728   -7.320709  -28.435309 H    2576 MOH     0.0372 ****
15761 HC3    20.751528   -8.360109  -27.019681 H    2576 MOH     0.0372 ****
15762 O1     19.421313   -9.045966  -28.431066 O    2576 MOH    -0.6497 ****
15763 HO1    19.448448   -9.846541  -27.901443 H    2576 MOH     0.4215 ****
15764 HC1    13.625871    4.700571  -25.778002 H    2577 MOH     0.0372 ****
15765 C1     14.229779    5.252114  -25.057460 C    2577 MOH     0.1166 ****
15766 HC2    15.041534    4.616880  -24.703907 H    2577 MOH     0.0372 ****
15767 HC3    13.581415    5.537888  -24.228731 H    2577 MOH     0.0372 ****
15768 O1     14.734383    6.376022  -25.712948 O    2577 MOH    -0.6497 ****
15769 HO1    15.547292    6.637709  -25.273835 H    2577 MOH     0.4215 ****
15770 HC1    11.687706   -0.620946  -21.393233 H    2578 MOH     0.0372 ****
15771 C1     10.667528   -0.913660  -21.145038 C    2578 MOH     0.1166 ****
15772 HC2    10.506447   -0.856097  -20.069529 H    2578 MOH     0.0372 ****
15773 HC3    10.459104   -1.935914  -21.461822 H    2578 MOH     0.0372 ****
15774 O1      9.781295   -0.021229  -21.746079 O    2578 MOH    -0.6497 ****
15775 HO1    10.232783    0.355176  -22.505512 H    2578 MOH     0.4215 ****
15776 HC1     6.286594    2.165757  -25.188982 H    2579 MOH     0.0372 ****
15777 C1      7.326979    2.193110  -25.514958 C    2579 MOH     0.1166 ****
15778 HC2     7.911258    1.553385  -24.852399 H    2579 MOH     0.0372 ****
15779 HC3     7.668193    3.226794  -25.461218 H    2579 MOH     0.0372 ****
15780 O1      7.393952    1.710968  -26.837955 O    2579 MOH    -0.6497 ****
15781 HO1     6.799281    0.958159  -26.881796 H    2579 MOH     0.4215 ****
15782 HC1     9.166995   -2.516443  -29.348891 H    2580 MOH     0.0372 ****
15783 C1     10.081517   -2.210256  -29.856594 C    2580 MOH     0.1166 ****
15784 HC2    10.676766   -1.555834  -29.219491 H    2580 MOH     0.0372 ****
15785 HC3     9.806121   -1.664020  -30.758862 H    2580 MOH     0.0372 ****
15786 O1     10.783575   -3.349677  -30.254695 O    2580 MOH    -0.6497 ****
15787 HO1    11.718305   -3.150861  -30.164892 H    2580 MOH     0.4215 ****
15788 HC1     6.112812   -2.854064  -34.204593 H    2581 MOH     0.0372 ****
15789 C1      6.155536   -2.612381  -33.142519 C    2581 MOH     0.1166 ****
15790 HC2     7.192457   -2.674435  -32.811593 H    2581 MOH     0.0372 ****
15791 HC3     5.557978   -3.314160  -32.560570 H    2581 MOH     0.0372 ****
15792 O1      5.721946   -1.318642  -32.873111 O    2581 MOH    -0.6497 ****
15793 HO1     4.952338   -1.127174  -33.414048 H    2581 MOH     0.4215 ****
15794 HC1     3.509539    1.083491  -26.489351 H    2582 MOH     0.0372 ****
15795 C1      3.074795    0.198000  -26.026196 C    2582 MOH     0.1166 ****
15796 HC2     2.662566   -0.476834  -26.776437 H    2582 MOH     0.0372 ****
15797 HC3     2.252648    0.484182  -25.369294 H    2582 MOH     0.0372 ****
15798 O1      3.980080   -0.504595  -25.230701 O    2582 MOH    -0.6497 ****
15799 HO1     3.453536   -1.222296  -24.870077 H    2582 MOH     0.4215 ****
15800 HC1    17.098633    6.641791  -28.720273 H    2583 MOH     0.0372 ****
15801 C1     16.432948    7.500746  -28.635420 C    2583 MOH     0.1166 ****
15802 HC2    15.390831    7.180679  -28.642491 H    2583 MOH     0.0372 ****
15803 HC3    16.568048    8.125366  -29.517890 H    2583 MOH     0.0372 ****
15804 O1     16.658692    8.297646  -27.431925 O    2583 MOH    -0.6497 ****
15805 HO1    16.585946    7.730589  -26.661885 H    2583 MOH     0.4215 ****
15806 HC1    17.173111   -4.012264  -19.770423 H    2584 MOH     0.0372 ****
15807 C1     17.472756   -5.059421  -19.785272 C    2584 MOH     0.1166 ****
15808 HC2    18.106686   -5.248032  -20.652185 H    2584 MOH     0.0372 ****
15809 HC3    16.604998   -5.713435  -19.864468 H    2584 MOH     0.0372 ****
15810 O1     18.177700   -5.370506  -18.591676 O    2584 MOH    -0.6497 ****
15811 HO1    18.611868   -6.218846  -18.710469 H    2584 MOH     0.4215 ****
15812 HC1     9.422184   -0.744645  -33.817806 H    2585 MOH     0.0372 ****
15813 C1      8.881784    0.124924  -34.191158 C    2585 MOH     0.1166 ****
15814 HC2     8.438379   -0.204533  -35.130903 H    2585 MOH     0.0372 ****
15815 HC3     9.604626    0.927948  -34.337529 H    2585 MOH     0.0372 ****
15816 O1      7.890473    0.463362  -33.197673 O    2585 MOH    -0.6497 ****
15817 HO1     7.254811   -0.250665  -33.114942 H    2585 MOH     0.4215 ****
15818 HC1     7.865647   -7.516668  -38.126915 H    2586 MOH     0.0372 ****
15819 C1      8.278453   -6.509111  -38.163684 C    2586 MOH     0.1166 ****
15820 HC2     8.193005   -6.038401  -37.184341 H    2586 MOH     0.0372 ****
15821 HC3     7.701680   -5.921233  -38.877862 H    2586 MOH     0.0372 ****
15822 O1      9.617905   -6.564633  -38.595019 O    2586 MOH    -0.6497 ****
15823 HO1     9.651392   -7.225179  -39.290812 H    2586 MOH     0.4215 ****
15824 HC1    14.039254   10.895738  -25.986598 H    2587 MOH     0.0372 ****
15825 C1     13.584879   11.193760  -26.931293 C    2587 MOH     0.1166 ****
15826 HC2    12.504079   11.059038  -26.883210 H    2587 MOH     0.0372 ****
15827 HC3    14.007499   10.569140  -27.719010 H    2587 MOH     0.0372 ****
15828 O1     13.866626   12.551185  -27.190801 O    2587 MOH    -0.6497 ****
15829 HO1    13.597003   12.745511  -28.091655 H    2587 MOH     0.4215 ****
15830 HC1    15.080216   13.809407  -22.863308 H    2588 MOH     0.0372 ****
15831 C1     14.738425   13.139879  -23.652439 C    2588 MOH     0.1166 ****
15832 HC2    14.240171   12.263778  -23.236660 H    2588 MOH     0.0372 ****
15833 HC3    15.610801   12.821854  -24.223074 H    2588 MOH     0.0372 ****
15834 O1     13.957270   13.869827  -24.574506 O    2588 MOH    -0.6497 ****
15835 HO1    13.984405   13.382787  -25.401114 H    2588 MOH     0.4215 ****
15836 HC1    17.846879   -2.896522  -27.194337 H    2589 MOH     0.0372 ****
15837 C1     17.706582   -3.050840  -28.263482 C    2589 MOH     0.1166 ****
15838 HC2    17.510283   -2.096355  -28.752800 H    2589 MOH     0.0372 ****
15839 HC3    16.872311   -3.729757  -28.439552 H    2589 MOH     0.0372 ****
15840 O1     18.882068   -3.605241  -28.815025 O    2589 MOH    -0.6497 ****
15841 HO1    19.528700   -3.706078  -28.112868 H    2589 MOH     0.4215 ****
15842 HC1    20.610077    5.139846  -25.903867 H    2590 MOH     0.0372 ****
15843 C1     21.092742    4.173930  -26.050945 C    2590 MOH     0.1166 ****
15844 HC2    20.319670    3.419896  -26.198730 H    2590 MOH     0.0372 ****
15845 HC3    21.657390    3.931431  -25.151505 H    2590 MOH     0.0372 ****
15846 O1     22.000914    4.201691  -27.173831 O    2590 MOH    -0.6497 ****
15847 HO1    22.712209    4.805899  -26.944728 H    2590 MOH     0.4215 ****
15848 HC1    15.303073   -3.102687  -34.563096 H    2591 MOH     0.0372 ****
15849 C1     15.141993   -4.115551  -34.194694 C    2591 MOH     0.1166 ****
15850 HC2    14.390860   -4.070644  -33.406977 H    2591 MOH     0.0372 ****
15851 HC3    16.066908   -4.516043  -33.779622 H    2591 MOH     0.0372 ****
15852 O1     14.690505   -4.962258  -35.251111 O    2591 MOH    -0.6497 ****
15853 HO1    15.095227   -5.820396  -35.101205 H    2591 MOH     0.4215 ****
15854 HC1    24.308583   -8.985545  -26.948971 H    2592 MOH     0.0372 ****
15855 C1     24.142306   -8.898588  -25.874875 C    2592 MOH     0.1166 ****
15856 HC2    24.214475   -7.842450  -25.615367 H    2592 MOH     0.0372 ****
15857 HC3    24.929234   -9.452581  -25.362223 H    2592 MOH     0.0372 ****
15858 O1     22.816710   -9.417472  -25.640823 O    2592 MOH    -0.6497 ****
15859 HO1    22.505518   -9.068828  -24.802194 H    2592 MOH     0.4215 ****
15860 HC1    23.174667    8.411548  -17.767896 H    2593 MOH     0.0372 ****
15861 C1     22.463371    7.585661  -17.778503 C    2593 MOH     0.1166 ****
15862 HC2    22.825370    6.854489  -18.501873 H    2593 MOH     0.0372 ****
15863 HC3    21.474370    7.957984  -18.048618 H    2593 MOH     0.0372 ****
15864 O1     22.399863    7.012073  -16.493690 O    2593 MOH    -0.6497 ****
15865 HO1    22.123889    7.695888  -15.879214 H    2593 MOH     0.4215 ****
15866 HC1     7.682050   -0.415597  -23.750020 H    2594 MOH     0.0372 ****
15867 C1      7.290606   -1.184737  -24.414700 C    2594 MOH     0.1166 ****
15868 HC2     7.790014   -1.150852  -25.382729 H    2594 MOH     0.0372 ****
15869 HC3     6.219044   -1.022254  -24.539151 H    2594 MOH     0.0372 ****
15870 O1      7.431480   -2.451531  -23.829923 O    2594 MOH    -0.6497 ****
15871 HO1     6.985188   -2.451939  -22.980687 H    2594 MOH     0.4215 ****
15872 HC1    23.902128   -2.847532  -28.130546 H    2595 MOH     0.0372 ****
15873 C1     23.885385   -3.854681  -28.548446 C    2595 MOH     0.1166 ****
15874 HC2    24.387102   -4.513185  -27.840632 H    2595 MOH     0.0372 ****
15875 HC3    24.436755   -3.883258  -29.488898 H    2595 MOH     0.0372 ****
15876 O1     22.542468   -4.290281  -28.697646 O    2595 MOH    -0.6497 ****
15877 HO1    22.050566   -4.029411  -27.914878 H    2595 MOH     0.4215 ****
15878 HC1    18.036827    0.943462  -28.998873 H    2596 MOH     0.0372 ****
15879 C1     16.973348    1.144320  -29.130395 C    2596 MOH     0.1166 ****
15880 HC2    16.391379    0.223312  -29.103525 H    2596 MOH     0.0372 ****
15881 HC3    16.808225    1.615030  -30.099838 H    2596 MOH     0.0372 ****
15882 O1     16.523014    2.034709  -28.151052 O    2596 MOH    -0.6497 ****
15883 HO1    16.633288    2.929181  -28.481271 H    2596 MOH     0.4215 ****
15884 HC1    17.517212   -7.384804  -26.591882 H    2597 MOH     0.0372 ****
15885 C1     17.331305   -6.798967  -27.492029 C    2597 MOH     0.1166 ****
15886 HC2    17.349203   -7.422771  -28.385812 H    2597 MOH     0.0372 ****
15887 HC3    18.078973   -6.013498  -27.600923 H    2597 MOH     0.0372 ****
15888 O1     16.088847   -6.210681  -27.362628 O    2597 MOH    -0.6497 ****
15889 HO1    15.790357   -6.100046  -28.268432 H    2597 MOH     0.4215 ****
15890 HC1    18.701934   -3.809773  -25.172718 H    2598 MOH     0.0372 ****
15891 C1     19.455954   -4.563400  -25.400407 C    2598 MOH     0.1166 ****
15892 HC2    18.969825   -5.452973  -25.799922 H    2598 MOH     0.0372 ****
15893 HC3    19.944969   -4.852848  -24.470561 H    2598 MOH     0.0372 ****
15894 O1     20.390107   -4.021246  -26.345101 O    2598 MOH    -0.6497 ****
15895 HO1    20.606613   -3.123508  -26.085593 H    2598 MOH     0.4215 ****
15896 HC1    14.638543  -10.439317  -27.907100 H    2599 MOH     0.0372 ****
15897 C1     14.231511   -9.438701  -28.052057 C    2599 MOH     0.1166 ****
15898 HC2    13.185930   -9.484424  -28.357527 H    2599 MOH     0.0372 ****
15899 HC3    14.788077   -8.981054  -28.868766 H    2599 MOH     0.0372 ****
15900 O1     14.386241   -8.614856  -26.895230 O    2599 MOH    -0.6497 ****
15901 HO1    14.669143   -7.734672  -27.155446 H    2599 MOH     0.4215 ****
15902 HC1    14.044450   -6.033910  -25.684664 H    2600 MOH     0.0372 ****
15903 C1     14.132784   -5.047990  -25.228580 C    2600 MOH     0.1166 ****
15904 HC2    13.531763   -5.016147  -24.320655 H    2600 MOH     0.0372 ****
15905 HC3    13.780601   -4.312735  -25.951950 H    2600 MOH     0.0372 ****
15906 O1     15.472814   -4.844274  -24.920988 O    2600 MOH    -0.6497 ****
15907 HO1    15.957788   -5.310902  -25.604761 H    2600 MOH     0.4215 ****
15908 HC1    18.340513    8.066170  -20.886237 H    2601 MOH     0.0372 ****
15909 C1     18.297789    8.940229  -21.536068 C    2601 MOH     0.1166 ****
15910 HC2    19.098574    9.640375  -21.297773 H    2601 MOH     0.0372 ****
15911 HC3    17.358440    9.456255  -21.340907 H    2601 MOH     0.0372 ****
15912 O1     18.298366    8.585870  -22.927654 O    2601 MOH    -0.6497 ****
15913 HO1    18.407486    9.378280  -23.458692 H    2601 MOH     0.4215 ****
15914 HC1    16.008018  -10.871244  -24.870784 H    2602 MOH     0.0372 ****
15915 C1     17.084199  -10.863079  -25.040489 C    2602 MOH     0.1166 ****
15916 HC2    17.504510  -10.002900  -24.520766 H    2602 MOH     0.0372 ****
15917 HC3    17.288004  -10.802658  -26.109635 H    2602 MOH     0.0372 ****
15918 O1     17.677715  -12.007807  -24.539858 O    2602 MOH    -0.6497 ****
15919 HO1    17.215835  -12.269086  -23.740827 H    2602 MOH     0.4215 ****
15920 HC1    12.654190    3.796709  -32.272071 H    2603 MOH     0.0372 ****
15921 C1     12.071644    2.923874  -31.976500 C    2603 MOH     0.1166 ****
15922 HC2    12.407662    2.008990  -32.463696 H    2603 MOH     0.0372 ****
15923 HC3    11.051466    3.103912  -32.313790 H    2603 MOH     0.0372 ****
15924 O1     12.064716    2.776905  -30.573600 O    2603 MOH    -0.6497 ****
15925 HO1    11.878232    3.638717  -30.192470 H    2603 MOH     0.4215 ****
15926 HC1    11.823383    0.782204  -28.001146 H    2604 MOH     0.0372 ****
15927 C1     12.855108    0.498471  -28.206914 C    2604 MOH     0.1166 ****
15928 HC2    13.125885   -0.327415  -27.550011 H    2604 MOH     0.0372 ****
15929 HC3    13.503473    1.349260  -27.996196 H    2604 MOH     0.0372 ****
15930 O1     12.993095    0.179221  -29.568801 O    2604 MOH    -0.6497 ****
15931 HO1    12.696337    0.972039  -30.021350 H    2604 MOH     0.4215 ****
15932 HC1    23.448908   -3.779971  -20.358028 H    2605 MOH     0.0372 ****
15933 C1     23.523964   -2.738121  -20.667741 C    2605 MOH     0.1166 ****
15934 HC2    24.562617   -2.513585  -20.910986 H    2605 MOH     0.0372 ****
15935 HC3    23.161965   -2.136772  -19.832648 H    2605 MOH     0.0372 ****
15936 O1     22.635999   -2.580538  -21.743958 O    2605 MOH    -0.6497 ****
15937 HO1    23.003194   -3.101054  -22.461671 H    2605 MOH     0.4215 ****
15938 HC1    13.173805   -7.692623  -19.809313 H    2606 MOH     0.0372 ****
15939 C1     14.166271   -7.671802  -20.259740 C    2606 MOH     0.1166 ****
15940 HC2    14.689350   -6.760592  -19.969827 H    2606 MOH     0.0372 ****
15941 HC3    14.106226   -7.727324  -21.345856 H    2606 MOH     0.0372 ****
15942 O1     14.901237   -8.736514  -19.811435 O    2606 MOH    -0.6497 ****
15943 HO1    14.454368   -9.532598  -20.107005 H    2606 MOH     0.4215 ****
15944 HC1    11.113820    4.536863  -26.804014 H    2607 MOH     0.0372 ****
15945 C1     10.874219    3.904078  -25.949829 C    2607 MOH     0.1166 ****
15946 HC2     9.828638    4.028594  -25.669107 H    2607 MOH     0.0372 ****
15947 HC3    11.506418    4.211489  -25.116150 H    2607 MOH     0.0372 ****
15948 O1     11.176174    2.554001  -26.265906 O    2607 MOH    -0.6497 ****
15949 HO1    10.713716    2.280883  -27.061401 H    2607 MOH     0.4215 ****
15950 HC1     8.520362   -3.401525  -35.903771 H    2608 MOH     0.0372 ****
15951 C1      9.308446   -3.367232  -36.656133 C    2608 MOH     0.1166 ****
15952 HC2     8.888135   -2.975722  -37.583150 H    2608 MOH     0.0372 ****
15953 HC3     9.706240   -4.364991  -36.842809 H    2608 MOH     0.0372 ****
15954 O1     10.314767   -2.467045  -36.306115 O    2608 MOH    -0.6497 ****
15955 HO1    11.142110   -2.932039  -36.449657 H    2608 MOH     0.4215 ****
15956 HC1    22.787265   -0.983879  -31.676687 H    2609 MOH     0.0372 ****
15957 C1     22.748005   -2.053489  -31.881747 C    2609 MOH     0.1166 ****
15958 HC2    21.969737   -2.481742  -31.250301 H    2609 MOH     0.0372 ****
15959 HC3    23.716799   -2.489907  -31.637796 H    2609 MOH     0.0372 ****
15960 O1     22.459330   -2.345387  -33.249999 O    2609 MOH    -0.6497 ****
15961 HO1    22.888879   -3.159842  -33.522235 H    2609 MOH     0.4215 ****
15962 HC1    20.349115   -7.089640  -24.283178 H    2610 MOH     0.0372 ****
15963 C1     20.600262   -7.610157  -23.358989 C    2610 MOH     0.1166 ****
15964 HC2    19.933422   -8.463804  -23.238074 H    2610 MOH     0.0372 ****
15965 HC3    20.477286   -6.940221  -22.508340 H    2610 MOH     0.0372 ****
15966 O1     21.940292   -8.040858  -23.455863 O    2610 MOH    -0.6497 ****
15967 HO1    22.130240   -8.596484  -22.697137 H    2610 MOH     0.4215 ****
15968 HC1    11.875345   -0.861404  -25.062410 H    2611 MOH     0.0372 ****
15969 C1     10.865559   -0.462137  -24.970486 C    2611 MOH     0.1166 ****
15970 HC2    10.252990   -1.203516  -24.457126 H    2611 MOH     0.0372 ****
15971 HC3    10.464301   -0.270261  -25.966092 H    2611 MOH     0.0372 ****
15972 O1     10.933686    0.726682  -24.208225 O    2611 MOH    -0.6497 ****
15973 HO1    11.267972    1.419887  -24.782396 H    2611 MOH     0.4215 ****
15974 HC1     7.619119    6.374797  -26.638551 H    2612 MOH     0.0372 ****
15975 C1      8.481680    6.837750  -27.117969 C    2612 MOH     0.1166 ****
15976 HC2     9.268608    6.952468  -26.371972 H    2612 MOH     0.0372 ****
15977 HC3     8.164715    7.829794  -27.440410 H    2612 MOH     0.0372 ****
15978 O1      8.864463    6.050239  -28.276917 O    2612 MOH    -0.6497 ****
15979 HO1     8.170488    6.096372  -28.938062 H    2612 MOH     0.4215 ****
15980 HC1    14.305412    1.812214  -20.377827 H    2613 MOH     0.0372 ****
15981 C1     14.913362    2.683008  -20.626022 C    2613 MOH     0.1166 ****
15982 HC2    15.962985    2.413564  -20.740573 H    2613 MOH     0.0372 ****
15983 HC3    14.856781    3.405199  -19.810728 H    2613 MOH     0.0372 ****
15984 O1     14.518454    3.245166  -21.835882 O    2613 MOH    -0.6497 ****
15985 HO1    14.800201    2.646674  -22.531675 H    2613 MOH     0.4215 ****
15986 HC1    13.364908   -5.931848  -30.176206 H    2614 MOH     0.0372 ****
15987 C1     14.221696   -6.189861  -30.799874 C    2614 MOH     0.1166 ****
15988 HC2    14.407603   -5.396634  -31.523244 H    2614 MOH     0.0372 ****
15989 HC3    13.975745   -7.093723  -31.357074 H    2614 MOH     0.0372 ****
15990 O1     15.385057   -6.380513  -29.998722 O    2614 MOH    -0.6497 ****
15991 HO1    16.081341   -6.728340  -30.560165 H    2614 MOH     0.4215 ****
15992 HC1    19.419581   -6.271919  -30.992914 H    2615 MOH     0.0372 ****
15993 C1     18.921327   -7.047590  -31.572742 C    2615 MOH     0.1166 ****
15994 HC2    19.648211   -7.793052  -31.895182 H    2615 MOH     0.0372 ****
15995 HC3    18.458870   -6.573614  -32.438948 H    2615 MOH     0.0372 ****
15996 O1     17.946183   -7.678334  -30.775832 O    2615 MOH    -0.6497 ****
15997 HO1    18.417878   -8.047391  -30.026299 H    2615 MOH     0.4215 ****
15998 HC1    22.760129   -0.220046  -23.805881 H    2616 MOH     0.0372 ****
15999 C1     22.137746    0.674426  -23.815073 C    2616 MOH     0.1166 ****
16000 HC2    22.581728    1.461529  -23.205547 H    2616 MOH     0.0372 ****
16001 HC3    21.166065    0.396409  -23.405659 H    2616 MOH     0.0372 ****
16002 O1     21.958190    1.127173  -25.136656 O    2616 MOH    -0.6497 ****
16003 HO1    22.815555    1.402741  -25.469703 H    2616 MOH     0.4215 ****
16004 HC1    14.500556    5.747727  -29.623956 H    2617 MOH     0.0372 ****
16005 C1     14.681844    4.709552  -29.344648 C    2617 MOH     0.1166 ****
16006 HC2    14.022510    4.072276  -29.933668 H    2617 MOH     0.0372 ****
16007 HC3    14.457255    4.554826  -28.288938 H    2617 MOH     0.0372 ****
16008 O1     16.012059    4.313959  -29.585772 O    2617 MOH    -0.6497 ****
16009 HO1    16.191615    4.422145  -30.522688 H    2617 MOH     0.4215 ****
16010 HC1    18.389010   -0.040417  -25.965385 H    2618 MOH     0.0372 ****
16011 C1     18.842808    0.838950  -25.508594 C    2618 MOH     0.1166 ****
16012 HC2    19.679966    1.155751  -26.130848 H    2618 MOH     0.0372 ****
16013 HC3    19.146494    0.589919  -24.491775 H    2618 MOH     0.0372 ****
16014 O1     17.892489    1.836709  -25.543949 O    2618 MOH    -0.6497 ****
16015 HO1    17.564554    1.892231  -26.444804 H    2618 MOH     0.4215 ****
16016 HC1    10.221814   11.432177  -28.294595 H    2619 MOH     0.0372 ****
16017 C1      9.314219   11.368490  -27.694968 C    2619 MOH     0.1166 ****
16018 HC2     8.703382   10.521783  -28.007510 H    2619 MOH     0.0372 ****
16019 HC3     8.765159   12.300521  -27.827197 H    2619 MOH     0.0372 ****
16020 O1      9.686033   11.185186  -26.370557 O    2619 MOH    -0.6497 ****
16021 HO1    10.213153   10.382570  -26.371972 H    2619 MOH     0.4215 ****
16022 HC1    25.751958    3.278642  -20.588545 H    2620 MOH     0.0372 ****
16023 C1     25.499079    4.143312  -19.974776 C    2620 MOH     0.1166 ****
16024 HC2    26.306792    4.326615  -19.266963 H    2620 MOH     0.0372 ****
16025 HC3    24.581092    3.910610  -19.435961 H    2620 MOH     0.0372 ****
16026 O1     25.306821    5.251706  -20.831083 O    2620 MOH    -0.6497 ****
16027 HO1    24.621507    4.980629  -21.446266 H    2620 MOH     0.4215 ****
16028 HC1    22.011306   -3.980829  -24.122665 H    2621 MOH     0.0372 ****
16029 C1     22.834030   -4.671585  -24.307927 C    2621 MOH     0.1166 ****
16030 HC2    23.109426   -4.550336  -25.355152 H    2621 MOH     0.0372 ****
16031 HC3    22.525725   -5.711394  -24.201154 H    2621 MOH     0.0372 ****
16032 O1     23.924067   -4.360908  -23.423336 O    2621 MOH    -0.6497 ****
16033 HO1    24.534904   -5.101471  -23.410608 H    2621 MOH     0.4215 ****
16034 HC1    17.758544   -2.639325  -33.317881 H    2622 MOH     0.0372 ****
16035 C1     18.685769   -2.816097  -32.774116 C    2622 MOH     0.1166 ****
16036 HC2    18.619951   -3.740779  -32.200653 H    2622 MOH     0.0372 ****
16037 HC3    18.909203   -1.979596  -32.111557 H    2622 MOH     0.0372 ****
16038 O1     19.689203   -2.918159  -33.704669 O    2622 MOH    -0.6497 ****
16039 HO1    20.499226   -2.577272  -33.317881 H    2622 MOH     0.4215 ****
16040 HC1    26.845460   -3.023079  -25.187568 H    2623 MOH     0.0372 ****
16041 C1     26.014075   -2.339671  -25.357273 C    2623 MOH     0.1166 ****
16042 HC2    25.092047   -2.799767  -25.000184 H    2623 MOH     0.0372 ****
16043 HC3    25.943639   -2.151469  -26.428540 H    2623 MOH     0.0372 ****
16044 O1     26.342010   -1.119009  -24.705321 O    2623 MOH    -0.6497 ****
16045 HO1    26.955156   -1.316193  -23.993264 H    2623 MOH     0.4215 ****
16046 HC1    19.352031   -0.793635  -16.704408 H    2624 MOH     0.0372 ****
16047 C1     18.460602   -0.166974  -16.736227 C    2624 MOH     0.1166 ****
16048 HC2    17.572060   -0.797717  -16.776532 H    2624 MOH     0.0372 ****
16049 HC3    18.469839    0.451114  -17.634253 H    2624 MOH     0.0372 ****
16050 O1     18.470994    0.680550  -15.614756 O    2624 MOH    -0.6497 ****
16051 HO1    19.226746    1.260671  -15.731429 H    2624 MOH     0.4215 ****
16052 HC1    21.009026    0.468261  -18.117914 H    2625 MOH     0.0372 ****
16053 C1     21.233615    1.534197  -18.067709 C    2625 MOH     0.1166 ****
16054 HC2    20.874503    2.082066  -18.938865 H    2625 MOH     0.0372 ****
16055 HC3    22.319611    1.580737  -18.139834 H    2625 MOH     0.0372 ****
16056 O1     20.872771    2.132281  -16.801281 O    2625 MOH    -0.6497 ****
16057 HO1    20.800602    3.081050  -16.927146 H    2625 MOH     0.4215 ****
16058 HC1    20.095658  -12.982704  -26.750274 H    2626 MOH     0.0372 ****
16059 C1     20.677050  -12.225403  -26.223479 C    2626 MOH     0.1166 ****
16060 HC2    21.730714  -12.469536  -26.360658 H    2626 MOH     0.0372 ****
16061 HC3    20.447264  -12.214789  -25.158576 H    2626 MOH     0.0372 ****
16062 O1     20.548878  -10.965141  -26.775729 O    2626 MOH    -0.6497 ****
16063 HO1    21.347353  -10.488715  -26.534606 H    2626 MOH     0.4215 ****
16064 HC1    15.251112   -1.625645  -21.668297 H    2627 MOH     0.0372 ****
16065 C1     15.596367   -2.468678  -22.265802 C    2627 MOH     0.1166 ****
16066 HC2    16.336530   -3.000625  -21.666883 H    2627 MOH     0.0372 ****
16067 HC3    16.038040   -2.082883  -23.184334 H    2627 MOH     0.0372 ****
16068 O1     14.543858   -3.386420  -22.599557 O    2627 MOH    -0.6497 ****
16069 HO1    14.822718   -3.899588  -23.361111 H    2627 MOH     0.4215 ****
16070 HC1    21.283845    0.075526  -28.245097 H    2628 MOH     0.0372 ****
16071 C1     21.947220   -0.746278  -27.975690 C    2628 MOH     0.1166 ****
16072 HC2    22.963357   -0.360075  -27.897908 H    2628 MOH     0.0372 ****
16073 HC3    21.933364   -1.528890  -28.734415 H    2628 MOH     0.0372 ****
16074 O1     21.569056   -1.173306  -26.688755 O    2628 MOH    -0.6497 ****
16075 HO1    21.622749   -0.404166  -26.117413 H    2628 MOH     0.4215 ****
16076 HC1    25.063757    6.274776  -24.141757 H    2629 MOH     0.0372 ****
16077 C1     24.724275    5.528906  -24.860884 C    2629 MOH     0.1166 ****
16078 HC2    24.217939    4.691589  -24.379345 H    2629 MOH     0.0372 ****
16079 HC3    25.611085    5.132089  -25.355859 H    2629 MOH     0.0372 ****
16080 O1     23.883076    6.149444  -25.815478 O    2629 MOH    -0.6497 ****
16081 HO1    24.412506    6.834484  -26.231257 H    2629 MOH     0.4215 ****
16082 HC1    15.770150   -0.961425  -33.122720 H    2630 MOH     0.0372 ****
16083 C1     15.139683   -1.274960  -32.291162 C    2630 MOH     0.1166 ****
16084 HC2    14.163384   -1.587678  -32.661686 H    2630 MOH     0.0372 ****
16085 HC3    14.969365   -0.447849  -31.601026 H    2630 MOH     0.0372 ****
16086 O1     15.741860   -2.329057  -31.595369 O    2630 MOH    -0.6497 ****
16087 HO1    15.091186   -2.683416  -30.985843 H    2630 MOH     0.4215 ****
16088 HC1    18.432312    3.770989  -29.978923 H    2631 MOH     0.0372 ****
16089 C1     19.088759    4.046557  -29.153730 C    2631 MOH     0.1166 ****
16090 HC2    18.542008    4.010631  -28.210449 H    2631 MOH     0.0372 ****
16091 HC3    19.435169    5.069219  -29.304343 H    2631 MOH     0.0372 ****
16092 O1     20.207664    3.174539  -29.088676 O    2631 MOH    -0.6497 ****
16093 HO1    20.812727    3.501137  -28.418339 H    2631 MOH     0.4215 ****
16094 HC1    22.208760    8.485849  -22.211355 H    2632 MOH     0.0372 ****
16095 C1     21.896991    8.066986  -21.253933 C    2632 MOH     0.1166 ****
16096 HC2    21.369870    8.813264  -20.661377 H    2632 MOH     0.0372 ****
16097 HC3    22.789574    7.733447  -20.725724 H    2632 MOH     0.0372 ****
16098 O1     21.082349    6.952876  -21.480914 O    2632 MOH    -0.6497 ****
16099 HO1    20.396457    7.194151  -22.106703 H    2632 MOH     0.4215 ****
16100 HC1     7.770384   -6.296822  -29.925890 H    2633 MOH     0.0372 ****
16101 C1      8.414130   -5.512577  -30.322577 C    2633 MOH     0.1166 ****
16102 HC2     8.448194   -4.711185  -29.585065 H    2633 MOH     0.0372 ****
16103 HC3     8.015181   -5.072485  -31.237573 H    2633 MOH     0.0372 ****
16104 O1      9.725870   -5.977163  -30.553094 O    2633 MOH    -0.6497 ****
16105 HO1    10.168120   -5.190061  -30.878363 H    2633 MOH     0.4215 ****
16106 HC1    17.046094    5.410106  -23.419094 H    2634 MOH     0.0372 ****
16107 C1     17.628063    5.652606  -24.308634 C    2634 MOH     0.1166 ****
16108 HC2    17.591690    4.830802  -25.023519 H    2634 MOH     0.0372 ****
16109 HC3    18.655169    5.795901  -23.971344 H    2634 MOH     0.0372 ****
16110 O1     17.162141    6.896946  -24.840378 O    2634 MOH    -0.6497 ****
16111 HO1    17.577833    7.574230  -24.302270 H    2634 MOH     0.4215 ****
16112 HC1    14.540394    0.843849  -25.747596 H    2635 MOH     0.0372 ****
16113 C1     14.703206    0.619721  -24.693300 C    2635 MOH     0.1166 ****
16114 HC2    15.270742   -0.307003  -24.601376 H    2635 MOH     0.0372 ****
16115 HC3    13.719401    0.502145  -24.239337 H    2635 MOH     0.0372 ****
16116 O1     15.396027    1.696271  -24.101452 O    2635 MOH    -0.6497 ****
16117 HO1    16.234339    1.786903  -24.559657 H    2635 MOH     0.4215 ****
16118 HC1    12.475789   -5.222312  -20.988060 H    2636 MOH     0.0372 ****
16119 C1     12.082613   -4.787528  -20.069529 C    2636 MOH     0.1166 ****
16120 HC2    11.898439   -3.722816  -20.210950 H    2636 MOH     0.0372 ****
16121 HC3    12.781785   -4.931639  -19.245749 H    2636 MOH     0.0372 ****
16122 O1     10.918098   -5.448482  -19.740724 O    2636 MOH    -0.6497 ****
16123 HO1    10.493745   -4.999000  -19.006040 H    2636 MOH     0.4215 ****
16124 HC1    16.449691   -8.535655  -36.125802 H    2637 MOH     0.0372 ****
16125 C1     15.712992   -8.189869  -35.401018 C    2637 MOH     0.1166 ****
16126 HC2    15.442215   -8.997793  -34.720074 H    2637 MOH     0.0372 ****
16127 HC3    14.804243   -7.890215  -35.921449 H    2637 MOH     0.0372 ****
16128 O1     16.152933   -7.108419  -34.606937 O    2637 MOH    -0.6497 ****
16129 HO1    17.100365   -7.177005  -34.471173 H    2637 MOH     0.4215 ****
16130 HC1    15.286908  -10.786328  -30.363589 H    2638 MOH     0.0372 ****
16131 C1     16.322097  -10.482183  -30.519860 C    2638 MOH     0.1166 ****
16132 HC2    16.910994  -11.384820  -30.687444 H    2638 MOH     0.0372 ****
16133 HC3    16.695065   -9.925333  -29.661432 H    2638 MOH     0.0372 ****
16134 O1     16.319787   -9.750602  -31.696486 O    2638 MOH    -0.6497 ****
16135 HO1    16.957182   -9.041475  -31.586884 H    2638 MOH     0.4215 ****
16136 HC1    28.349457   -5.594226  -25.792851 H    2639 MOH     0.0372 ****
16137 C1     28.733395   -4.997368  -26.620166 C    2639 MOH     0.1166 ****
16138 HC2    29.421019   -5.614639  -27.198579 H    2639 MOH     0.0372 ****
16139 HC3    29.234535   -4.135555  -26.178224 H    2639 MOH     0.0372 ****
16140 O1     27.668184   -4.557684  -27.407176 O    2639 MOH    -0.6497 ****
16141 HO1    27.138754   -5.313760  -27.668805 H    2639 MOH     0.4215 ****
16142 HC1    18.815672    3.401933  -21.192414 H    2640 MOH     0.0372 ****
16143 C1     18.879181    2.478883  -21.768706 C    2640 MOH     0.1166 ****
16144 HC2    19.910906    2.274759  -22.054377 H    2640 MOH     0.0372 ****
16145 HC3    18.261993    2.590743  -22.659661 H    2640 MOH     0.0372 ****
16146 O1     18.361298    1.425603  -21.003617 O    2640 MOH    -0.6497 ****
16147 HO1    18.611290    0.600941  -21.427881 H    2640 MOH     0.4215 ****
16148 HC1     6.764640    2.709544  -29.674867 H    2641 MOH     0.0372 ****
16149 C1      6.598363    3.779971  -29.556073 C    2641 MOH     0.1166 ****
16150 HC2     6.951702    4.100854  -28.576023 H    2641 MOH     0.0372 ****
16151 HC3     5.531420    3.993076  -29.628198 H    2641 MOH     0.0372 ****
16152 O1      7.285410    4.494405  -30.565822 O    2641 MOH    -0.6497 ****
16153 HO1     7.194766    3.964499  -31.360610 H    2641 MOH     0.4215 ****
16154 HC1    28.241493   -0.137580  -27.057158 H    2642 MOH     0.0372 ****
16155 C1     28.881774   -1.012864  -26.948263 C    2642 MOH     0.1166 ****
16156 HC2    28.731663   -1.413764  -25.945586 H    2642 MOH     0.0372 ****
16157 HC3    29.920427   -0.700146  -27.054329 H    2642 MOH     0.0372 ****
16158 O1     28.502455   -1.954693  -27.951648 O    2642 MOH    -0.6497 ****
16159 HO1    28.431441   -2.827936  -27.559204 H    2642 MOH     0.4215 ****
16160 HC1     9.242628    2.260471  -29.998722 H    2643 MOH     0.0372 ****
16161 C1      9.509941    1.255772  -29.669918 C    2643 MOH     0.1166 ****
16162 HC2    10.454486    0.966324  -30.130244 H    2643 MOH     0.0372 ****
16163 HC3     8.747261    0.542154  -29.979630 H    2643 MOH     0.0372 ****
16164 O1      9.677372    1.263528  -28.240855 O    2643 MOH    -0.6497 ****
16165 HO1     8.848875    1.451322  -27.793963 H    2643 MOH     0.4215 ****
16166 HC1    26.377229    2.075942  -22.636326 H    2644 MOH     0.0372 ****
16167 C1     27.235749    2.437650  -23.202012 C    2644 MOH     0.1166 ****
16168 HC2    26.887606    2.956942  -24.094380 H    2644 MOH     0.0372 ****
16169 HC3    27.865060    1.597067  -23.495461 H    2644 MOH     0.0372 ****
16170 O1     27.985149    3.327223  -22.406517 O    2644 MOH    -0.6497 ****
16171 HO1    28.152581    2.908769  -21.558696 H    2644 MOH     0.4215 ****
16172 HC1    12.124183    8.338063  -27.921950 H    2645 MOH     0.0372 ****
16173 C1     11.753524    7.941246  -26.977255 C    2645 MOH     0.1166 ****
16174 HC2    12.608002    7.818363  -26.311868 H    2645 MOH     0.0372 ****
16175 HC3    11.281829    6.965532  -27.093221 H    2645 MOH     0.0372 ****
16176 O1     10.898468    8.876542  -26.415105 O    2645 MOH    -0.6497 ****
16177 HO1    11.083220    8.878175  -25.473239 H    2645 MOH     0.4215 ****
16178 HC1    12.008135   -4.716493  -15.770320 H    2646 MOH     0.0372 ****
16179 C1     12.902451   -5.159034  -15.330499 C    2646 MOH     0.1166 ****
16180 HC2    12.968269   -4.885916  -14.277617 H    2646 MOH     0.0372 ****
16181 HC3    13.792725   -4.789161  -15.839616 H    2646 MOH     0.0372 ****
16182 O1     12.851067   -6.571573  -15.446465 O    2646 MOH    -0.6497 ****
16183 HO1    13.756352   -6.879800  -15.358076 H    2646 MOH     0.4215 ****
16184 HC1    10.661755   -9.074951  -37.434657 H    2647 MOH     0.0372 ****
16185 C1     11.175596   -8.765908  -36.524611 C    2647 MOH     0.1166 ****
16186 HC2    12.258705   -8.792035  -36.640576 H    2647 MOH     0.0372 ****
16187 HC3    10.872487   -9.405224  -35.694467 H    2647 MOH     0.0372 ****
16188 O1     10.736233   -7.508503  -36.241768 O    2647 MOH    -0.6497 ****
16189 HO1    10.404256   -7.146387  -37.066962 H    2647 MOH     0.4215 ****
16190 HC1    11.412310    3.663212  -22.183778 H    2648 MOH     0.0372 ****
16191 C1     11.345914    3.402749  -21.127361 C    2648 MOH     0.1166 ****
16192 HC2    11.453879    2.324566  -21.003617 H    2648 MOH     0.0372 ****
16193 HC3    10.362110    3.717509  -20.778757 H    2648 MOH     0.0372 ****
16194 O1     12.329719    4.121675  -20.403990 O    2648 MOH    -0.6497 ****
16195 HO1    13.152443    4.012672  -20.886944 H    2648 MOH     0.4215 ****
16196 HC1    18.958855    6.224153  -17.335147 H    2649 MOH     0.0372 ****
16197 C1     19.396487    5.320700  -17.760118 C    2649 MOH     0.1166 ****
16198 HC2    19.640128    5.515843  -18.803808 H    2649 MOH     0.0372 ****
16199 HC3    18.690965    4.494405  -17.666780 H    2649 MOH     0.0372 ****
16200 O1     20.532712    5.023087  -17.012706 O    2649 MOH    -0.6497 ****
16201 HO1    21.160292    5.748952  -17.060789 H    2649 MOH     0.4215 ****
16202 HC1    15.738973   -0.973672  -17.968007 H    2650 MOH     0.0372 ****
16203 C1     15.328477   -1.930198  -17.644860 C    2650 MOH     0.1166 ****
16204 HC2    16.107322   -2.692806  -17.623646 H    2650 MOH     0.0372 ****
16205 HC3    14.543280   -2.209032  -18.347017 H    2650 MOH     0.0372 ****
16206 O1     14.732651   -1.785678  -16.389038 O    2650 MOH    -0.6497 ****
16207 HO1    15.353303   -1.336605  -15.810625 H    2650 MOH     0.4215 ****
16208 HC1     4.038392    0.347011  -31.600319 H    2651 MOH     0.0372 ****
16209 C1      4.597267    0.979387  -30.910890 C    2651 MOH     0.1166 ****
16210 HC2     4.642301    1.980004  -31.341518 H    2651 MOH     0.0372 ****
16211 HC3     5.610517    0.585020  -30.830280 H    2651 MOH     0.0372 ****
16212 O1      3.932160    0.991635  -29.622542 O    2651 MOH    -0.6497 ****
16213 HO1     4.399236    0.373547  -29.056856 H    2651 MOH     0.4215 ****
16214 HC1    12.513317   -5.866120  -33.701133 H    2652 MOH     0.0372 ****
16215 C1     11.631126   -5.282733  -33.440211 C    2652 MOH     0.1166 ****
16216 HC2    11.935389   -4.284158  -33.129084 H    2652 MOH     0.0372 ****
16217 HC3    11.095922   -5.772631  -32.627038 H    2652 MOH     0.0372 ****
16218 O1     10.810134   -5.227620  -34.607644 O    2652 MOH    -0.6497 ****
16219 HO1    10.719490   -6.116376  -34.960490 H    2652 MOH     0.4215 ****
16220 HC1    14.243636   -4.003283  -28.634713 H    2653 MOH     0.0372 ****
16221 C1     13.931866   -2.959800  -28.670069 C    2653 MOH     0.1166 ****
16222 HC2    14.737847   -2.302521  -28.341971 H    2653 MOH     0.0372 ****
16223 HC3    13.088935   -2.836509  -27.991246 H    2653 MOH     0.0372 ****
16224 O1     13.478646   -2.613606  -29.964074 O    2653 MOH    -0.6497 ****
16225 HO1    13.267336   -1.677901  -29.934375 H    2653 MOH     0.4215 ****
16226 HC1    20.939744    4.010223  -21.137260 H    2654 MOH     0.0372 ****
16227 C1     21.865236    4.309877  -20.643699 C    2654 MOH     0.1166 ****
16228 HC2    22.309219    3.455822  -20.131754 H    2654 MOH     0.0372 ****
16229 HC3    21.619285    5.061870  -19.894166 H    2654 MOH     0.0372 ****
16230 O1     22.747428    4.809165  -21.669711 O    2654 MOH    -0.6497 ****
16231 HO1    22.556902    5.747319  -21.744665 H    2654 MOH     0.4215 ****
16232 HC1     9.968934   -4.832435  -27.818005 H    2655 MOH     0.0372 ****
16233 C1     10.740274   -5.125557  -27.105241 C    2655 MOH     0.1166 ****
16234 HC2    11.638054   -5.381937  -27.668098 H    2655 MOH     0.0372 ****
16235 HC3    10.410030   -6.013906  -26.566426 H    2655 MOH     0.0372 ****
16236 O1     11.000659   -4.048190  -26.196609 O    2655 MOH    -0.6497 ****
16237 HO1    10.334397   -4.073093  -25.505766 H    2655 MOH     0.4215 ****
16238 HC1     9.839608   -4.221696  -21.934876 H    2656 MOH     0.0372 ****
16239 C1     10.322850   -4.372339  -22.900077 C    2656 MOH     0.1166 ****
16240 HC2    10.778379   -5.361933  -22.919876 H    2656 MOH     0.0372 ****
16241 HC3    11.083220   -3.603200  -23.038670 H    2656 MOH     0.0372 ****
16242 O1      9.291702   -4.322941  -23.886491 O    2656 MOH    -0.6497 ****
16243 HO1     8.779015   -3.521958  -23.756384 H    2656 MOH     0.4215 ****
16244 HC1     5.539503   -2.794051  -28.268432 H    2657 MOH     0.0372 ****
16245 C1      6.127245   -1.878351  -28.206914 C    2657 MOH     0.1166 ****
16246 HC2     6.593167   -1.667694  -29.169993 H    2657 MOH     0.0372 ****
16247 HC3     6.915906   -2.026953  -27.470108 H    2657 MOH     0.0372 ****
16248 O1      5.345513   -0.753627  -27.831440 O    2657 MOH    -0.6497 ****
16249 HO1     4.945409   -0.917742  -26.974427 H    2657 MOH     0.4215 ****
16250 HC1    19.356650    7.879192  -25.789316 H    2658 MOH     0.0372 ****
16251 C1     20.302349    8.222120  -25.369294 C    2658 MOH     0.1166 ****
16252 HC2    20.188611    9.196609  -24.893411 H    2658 MOH     0.0372 ****
16253 HC3    21.032120    8.335613  -26.171153 H    2658 MOH     0.0372 ****
16254 O1     20.744022    7.299888  -24.397022 O    2658 MOH    -0.6497 ****
16255 HO1    21.575407    6.911643  -24.679158 H    2658 MOH     0.4215 ****
16256 HC1    19.274666   -0.186570  -30.718557 H    2659 MOH     0.0372 ****
16257 C1     20.056398    0.486632  -31.069989 C    2659 MOH     0.1166 ****
16258 HC2    20.615851    0.051847  -31.898011 H    2659 MOH     0.0372 ****
16259 HC3    20.741713    0.691572  -30.248331 H    2659 MOH     0.0372 ****
16260 O1     19.482512    1.686065  -31.515466 O    2659 MOH    -0.6497 ****
16261 HO1    19.677656    2.329465  -30.829573 H    2659 MOH     0.4215 ****
16262 HC1    18.672951   12.013359  -26.355708 H    2660 MOH     0.0372 ****
16263 C1     17.872167   11.619399  -25.729919 C    2660 MOH     0.1166 ****
16264 HC2    17.306363   10.889043  -26.309039 H    2660 MOH     0.0372 ****
16265 HC3    17.199553   12.396296  -25.368587 H    2660 MOH     0.0372 ****
16266 O1     18.369265   10.878429  -24.685522 O    2660 MOH    -0.6497 ****
16267 HO1    18.913706   11.474471  -24.166506 H    2660 MOH     0.4215 ****
16268 HC1    28.771385   12.390172  -19.770423 H    2661 MOH     0.0372 ****
16269 C1     29.071030   11.343015  -19.785272 C    2661 MOH     0.1166 ****
16270 HC2    29.704960   11.154405  -20.652185 H    2661 MOH     0.0372 ****
16271 HC3    28.203272   10.689002  -19.864468 H    2661 MOH     0.0372 ****
16272 O1     29.775974   11.031930  -18.591676 O    2661 MOH    -0.6497 ****
16273 HO1    30.210142   10.183590  -18.710469 H    2661 MOH     0.4215 ****
16274 HC1    24.772080    8.709814  -19.809313 H    2662 MOH     0.0372 ****
16275 C1     25.764545    8.730635  -20.259740 C    2662 MOH     0.1166 ****
16276 HC2    26.287624    9.641845  -19.969827 H    2662 MOH     0.0372 ****
16277 HC3    25.704500    8.675113  -21.345856 H    2662 MOH     0.0372 ****
16278 O1     26.499512    7.665923  -19.811435 O    2662 MOH    -0.6497 ****
16279 HO1    26.052642    6.869839  -20.107005 H    2662 MOH     0.4215 ****
16280 HC1    30.950305   15.608802  -16.704408 H    2663 MOH     0.0372 ****
16281 C1     30.058876   16.235463  -16.736227 C    2663 MOH     0.1166 ****
16282 HC2    29.170334   15.604719  -16.776532 H    2663 MOH     0.0372 ****
16283 HC3    30.068114   16.853551  -17.634253 H    2663 MOH     0.0372 ****
16284 O1     30.069268   17.082986  -15.614756 O    2663 MOH    -0.6497 ****
16285 HO1    30.825020   17.663107  -15.731429 H    2663 MOH     0.4215 ****
16286 HC1    24.074063   11.180124  -20.988060 H    2664 MOH     0.0372 ****
16287 C1     23.680888   11.614909  -20.069529 C    2664 MOH     0.1166 ****
16288 HC2    23.496713   12.679620  -20.210950 H    2664 MOH     0.0372 ****
16289 HC3    24.380059   11.470797  -19.245749 H    2664 MOH     0.0372 ****
16290 O1     22.516372   10.953955  -19.740724 O    2664 MOH    -0.6497 ****
16291 HO1    22.092020   11.403436  -19.006040 H    2664 MOH     0.4215 ****
16292 HC1    23.606409   11.685944  -15.770320 H    2665 MOH     0.0372 ****
16293 C1     24.500725   11.243403  -15.330499 C    2665 MOH     0.1166 ****
16294 HC2    24.566543   11.516521  -14.277617 H    2665 MOH     0.0372 ****
16295 HC3    25.390999   11.613276  -15.839616 H    2665 MOH     0.0372 ****
16296 O1     24.449341    9.830864  -15.446465 O    2665 MOH    -0.6497 ****
16297 HO1    25.354626    9.522636  -15.358076 H    2665 MOH     0.4215 ****
16298 HC1    27.337247   15.428764  -17.968007 H    2666 MOH     0.0372 ****
16299 C1     26.926751   14.472238  -17.644860 C    2666 MOH     0.1166 ****
16300 HC2    27.705596   13.709631  -17.623646 H    2666 MOH     0.0372 ****
16301 HC3    26.141554   14.193405  -18.347017 H    2666 MOH     0.0372 ****
16302 O1     26.330925   14.616758  -16.389038 O    2666 MOH    -0.6497 ****
16303 HO1    26.951577   15.065832  -15.810625 H    2666 MOH     0.4215 ****
16304 HC1    21.437882   12.180741  -21.934876 H    2667 MOH     0.0372 ****
16305 C1     21.921124   12.030097  -22.900077 C    2667 MOH     0.1166 ****
16306 HC2    22.376653   11.040503  -22.919876 H    2667 MOH     0.0372 ****
16307 HC3    22.681494   12.799237  -23.038670 H    2667 MOH     0.0372 ****
16308 O1     20.889976   12.079495  -23.886491 O    2667 MOH    -0.6497 ****
16309 HO1    20.377289   12.880478  -23.756384 H    2667 MOH     0.4215 ****
16310 HC1   -32.548872   18.001545    0.779938 H    2668 MOH     0.0372 ****
16311 C1    -32.115282   18.194647    1.760695 C    2668 MOH     0.1166 ****
16312 HC2   -31.829494   19.245478    1.811607 H    2668 MOH     0.0372 ****
16313 HC3   -31.227317   17.575334    1.887268 H    2668 MOH     0.0372 ****
16314 O1    -33.069642   17.879887    2.768323 O    2668 MOH    -0.6497 ****
16315 HO1   -32.868724   16.988273    3.061065 H    2668 MOH     0.4215 ****
16316 HC1   -28.479130   16.390189   -3.835348 H    2669 MOH     0.0372 ****
16317 C1    -28.673697   17.131568   -3.060359 C    2669 MOH     0.1166 ****
16318 HC2   -29.737753   17.173618   -2.827720 H    2669 MOH     0.0372 ****
16319 HC3   -28.372320   18.119937   -3.407548 H    2669 MOH     0.0372 ****
16320 O1    -28.003971   16.801295   -1.849085 O    2669 MOH    -0.6497 ****
16321 HO1   -28.221632   15.906823   -1.576848 H    2669 MOH     0.4215 ****
16322 HC1   -28.800137   18.420000   -0.053741 H    2670 MOH     0.0372 ****
16323 C1    -28.717576   19.359787    0.492146 C    2670 MOH     0.1166 ****
16324 HC2   -29.544341   20.015434    0.219203 H    2670 MOH     0.0372 ****
16325 HC3   -27.760329   19.821924    0.247487 H    2670 MOH     0.0372 ****
16326 O1    -28.758567   19.001753    1.833527 O    2670 MOH    -0.6497 ****
16327 HO1   -28.534556   19.744765    2.397799 H    2670 MOH     0.4215 ****
16328 HC1   -31.042565   14.098691   -5.513312 H    2671 MOH     0.0372 ****
16329 C1    -31.565067   15.027864   -5.285624 C    2671 MOH     0.1166 ****
16330 HC2   -32.597369   14.814759   -5.007024 H    2671 MOH     0.0372 ****
16331 HC3   -31.524653   15.674122   -6.161729 H    2671 MOH     0.0372 ****
16332 O1    -30.877443   15.591247   -4.219307 O    2671 MOH    -0.6497 ****
16333 HO1   -30.414985   14.875996   -3.776658 H    2671 MOH     0.4215 ****
16334 HC1   -32.239412   19.681079    7.821308 H    2672 MOH     0.0372 ****
16335 C1    -32.492292   20.545748    8.435076 C    2672 MOH     0.1166 ****
16336 HC2   -31.684579   20.729052    9.142890 H    2672 MOH     0.0372 ****
16337 HC3   -33.410279   20.313047    8.973892 H    2672 MOH     0.0372 ****
16338 O1    -32.684549   21.654143    7.578770 O    2672 MOH    -0.6497 ****
16339 HO1   -33.369864   21.383066    6.963587 H    2672 MOH     0.4215 ****
16340 HC1   -31.145911   13.379358    3.222285 H    2673 MOH     0.0372 ****
16341 C1    -31.977295   14.062766    3.052580 C    2673 MOH     0.1166 ****
16342 HC2   -32.899324   13.602670    3.409668 H    2673 MOH     0.0372 ****
16343 HC3   -32.047732   14.250968    1.981313 H    2673 MOH     0.0372 ****
16344 O1    -31.649360   15.283428    3.704532 O    2673 MOH    -0.6497 ****
16345 HO1   -31.036214   15.086244    4.416589 H    2673 MOH     0.4215 ****
16346 HC1   -31.386089   16.205661   -0.755190 H    2674 MOH     0.0372 ****
16347 C1    -32.395874   15.884778   -1.011163 C    2674 MOH     0.1166 ****
16348 HC2   -33.093313   16.315480   -0.292036 H    2674 MOH     0.0372 ****
16349 HC3   -32.477281   14.798429   -0.976515 H    2674 MOH     0.0372 ****
16350 O1    -32.750945   16.344057   -2.283248 O    2674 MOH    -0.6497 ****
16351 HO1   -32.152232   15.936625   -2.912573 H    2674 MOH     0.4215 ****
16352 HC1   -29.241810   11.914155   -1.820093 H    2675 MOH     0.0372 ****
16353 C1    -30.147672   12.238712   -2.331331 C    2675 MOH     0.1166 ****
16354 HC2   -31.033328   11.845977   -1.832114 H    2675 MOH     0.0372 ****
16355 HC3   -30.140167   11.890476   -3.364414 H    2675 MOH     0.0372 ****
16356 O1    -30.240626   13.630839   -2.317189 O    2675 MOH    -0.6497 ****
16357 HO1   -29.970426   13.916204   -1.441084 H    2675 MOH     0.4215 ****
16358 HC1   -29.641913   10.808210    2.617002 H    2676 MOH     0.0372 ****
16359 C1    -29.257975   11.405069    1.789687 C    2676 MOH     0.1166 ****
16360 HC2   -28.570351   10.787798    1.211274 H    2676 MOH     0.0372 ****
16361 HC3   -28.756835   12.266881    2.231629 H    2676 MOH     0.0372 ****
16362 O1    -30.323187   11.844753    1.002677 O    2676 MOH    -0.6497 ****
16363 HO1   -30.852617   11.088677    0.741048 H    2676 MOH     0.4215 ****
16364 HC1   -29.749878   16.264857    1.352695 H    2677 MOH     0.0372 ****
16365 C1    -29.109596   15.389573    1.461589 C    2677 MOH     0.1166 ****
16366 HC2   -29.259708   14.988673    2.464267 H    2677 MOH     0.0372 ****
16367 HC3   -28.070943   15.702291    1.355523 H    2677 MOH     0.0372 ****
16368 O1    -29.488916   14.447744    0.458205 O    2677 MOH    -0.6497 ****
16369 HO1   -29.559930   13.574501    0.850649 H    2677 MOH     0.4215 ****
16370 HC1   -31.614142   18.478379    5.773526 H    2678 MOH     0.0372 ****
16371 C1    -30.755622   18.840087    5.207841 C    2678 MOH     0.1166 ****
16372 HC2   -31.103764   19.359379    4.315472 H    2678 MOH     0.0372 ****
16373 HC3   -30.126310   17.999504    4.914392 H    2678 MOH     0.0372 ****
16374 O1    -30.006221   19.729660    6.003336 O    2678 MOH    -0.6497 ****
16375 HO1   -29.838790   19.311206    6.851157 H    2678 MOH     0.4215 ****
16376 HC1   -30.815089   19.799471   -4.158495 H    2679 MOH     0.0372 ****
16377 C1    -31.261958   20.213434   -5.062178 C    2679 MOH     0.1166 ****
16378 HC2   -32.289642   20.532276   -4.890351 H    2679 MOH     0.0372 ****
16379 HC3   -31.231359   19.441029   -5.831510 H    2679 MOH     0.0372 ****
16380 O1    -30.451358   21.277738   -5.450380 O    2679 MOH    -0.6497 ****
16381 HO1   -30.269493   21.823974   -4.682462 H    2679 MOH     0.4215 ****
16382 HC1   -27.587817   23.550292   -6.852572 H    2680 MOH     0.0372 ****
16383 C1    -27.774878   22.564373   -6.427601 C    2680 MOH     0.1166 ****
16384 HC2   -28.166899   22.659086   -5.415024 H    2680 MOH     0.0372 ****
16385 HC3   -26.817631   22.047939   -6.359012 H    2680 MOH     0.0372 ****
16386 O1    -28.616077   21.760532   -7.276836 O    2680 MOH    -0.6497 ****
16387 HO1   -29.331992   21.414337   -6.739435 H    2680 MOH     0.4215 ****
16388 HC1   -24.957409   24.022228   -0.215668 H    2681 MOH     0.0372 ****
16389 C1    -25.806114   24.457012    0.312541 C    2681 MOH     0.1166 ****
16390 HC2   -25.942368   25.484165   -0.025456 H    2681 MOH     0.0372 ****
16391 HC3   -25.641569   24.444765    1.390172 H    2681 MOH     0.0372 ****
16392 O1    -26.971784   23.758907   -0.021214 O    2681 MOH    -0.6497 ****
16393 HO1   -26.944648   22.958333    0.508409 H    2681 MOH     0.4215 ****
16394 HC1   -22.414181   23.444964   -3.768172 H    2682 MOH     0.0372 ****
16395 C1    -23.094299   22.876275   -3.133898 C    2682 MOH     0.1166 ****
16396 HC2   -22.739806   22.913425   -2.103643 H    2682 MOH     0.0372 ****
16397 HC3   -23.149148   21.839732   -3.465531 H    2682 MOH     0.0372 ****
16398 O1    -24.326942   23.499261   -3.215922 O    2682 MOH    -0.6497 ****
16399 HO1   -24.224751   24.392100   -2.880046 H    2682 MOH     0.4215 ****
16400 HC1   -22.084514   23.819328    1.460882 H    2683 MOH     0.0372 ****
16401 C1    -22.250791   23.906285    2.534977 C    2683 MOH     0.1166 ****
16402 HC2   -22.178622   24.962423    2.794486 H    2683 MOH     0.0372 ****
16403 HC3   -21.463862   23.352292    3.047630 H    2683 MOH     0.0372 ****
16404 O1    -23.576387   23.387401    2.769030 O    2683 MOH    -0.6497 ****
16405 HO1   -23.887579   23.736046    3.607658 H    2683 MOH     0.4215 ****
16406 HC1   -30.385079   21.933629    3.539069 H    2684 MOH     0.0372 ****
16407 C1    -29.308898   21.941794    3.369363 C    2684 MOH     0.1166 ****
16408 HC2   -28.888587   22.801973    3.889087 H    2684 MOH     0.0372 ****
16409 HC3   -29.105093   22.002215    2.300218 H    2684 MOH     0.0372 ****
16410 O1    -28.715382   20.797066    3.869995 O    2684 MOH    -0.6497 ****
16411 HO1   -29.177262   20.535787    4.669026 H    2684 MOH     0.4215 ****
16412 HC1   -26.043982   25.715233    4.126675 H    2685 MOH     0.0372 ****
16413 C1    -25.792835   25.194717    5.050863 C    2685 MOH     0.1166 ****
16414 HC2   -26.459674   24.341070    5.171779 H    2685 MOH     0.0372 ****
16415 HC3   -25.915810   25.864652    5.901513 H    2685 MOH     0.0372 ****
16416 O1    -24.452805   24.764015    4.953990 O    2685 MOH    -0.6497 ****
16417 HO1   -24.262856   24.208389    5.712715 H    2685 MOH     0.4215 ****
16418 HC1   -22.059688   25.287389   -0.929139 H    2686 MOH     0.0372 ****
16419 C1    -21.188466   25.790759   -1.348453 C    2686 MOH     0.1166 ****
16420 HC2   -21.486379   26.739936   -1.791809 H    2686 MOH     0.0372 ****
16421 HC3   -20.749680   25.179203   -2.137584 H    2686 MOH     0.0372 ****
16422 O1    -20.219672   26.065918   -0.362746 O    2686 MOH    -0.6497 ****
16423 HO1   -19.789547   25.227785   -0.179605 H    2686 MOH     0.4215 ****
16424 HC1   -26.297439   19.822169    1.659579 H    2687 MOH     0.0372 ****
16425 C1    -25.716047   20.579470    2.186374 C    2687 MOH     0.1166 ****
16426 HC2   -24.662383   20.335337    2.049195 H    2687 MOH     0.0372 ****
16427 HC3   -25.945832   20.590084    3.251277 H    2687 MOH     0.0372 ****
16428 O1    -25.844219   21.839732    1.634123 O    2687 MOH    -0.6497 ****
16429 HO1   -25.045743   22.316158    1.875247 H    2687 MOH     0.4215 ****
16430 HC1   -26.076891   19.499653   -3.003083 H    2688 MOH     0.0372 ****
16431 C1    -26.109800   20.584777   -3.102078 C    2688 MOH     0.1166 ****
16432 HC2   -25.664663   21.053854   -2.224558 H    2688 MOH     0.0372 ****
16433 HC3   -27.147298   20.910559   -3.177031 H    2688 MOH     0.0372 ****
16434 O1    -25.423908   20.961998   -4.267390 O    2688 MOH    -0.6497 ****
16435 HO1   -25.322294   21.915258   -4.227085 H    2688 MOH     0.4215 ****
16436 HC1   -31.106189   22.018545   -1.953736 H    2689 MOH     0.0372 ****
16437 C1    -30.071000   22.322690   -2.110007 C    2689 MOH     0.1166 ****
16438 HC2   -29.482103   21.420053   -2.277591 H    2689 MOH     0.0372 ****
16439 HC3   -29.698032   22.879541   -1.251579 H    2689 MOH     0.0372 ****
16440 O1    -30.073309   23.054271   -3.286633 O    2689 MOH    -0.6497 ****
16441 HO1   -29.435915   23.763398   -3.177031 H    2689 MOH     0.4215 ****
16442 HC1   -18.043639   27.210647    2.617002 H    2690 MOH     0.0372 ****
16443 C1    -17.659701   27.807506    1.789687 C    2690 MOH     0.1166 ****
16444 HC2   -16.972077   27.190234    1.211274 H    2690 MOH     0.0372 ****
16445 HC3   -17.158561   28.669318    2.231629 H    2690 MOH     0.0372 ****
16446 O1    -18.724913   28.247189    1.002677 O    2690 MOH    -0.6497 ****
16447 HO1   -19.254343   27.491113    0.741048 H    2690 MOH     0.4215 ****
16448 HC1   -26.343049   17.946268    0.159806 H    2691 MOH     0.0372 ****
16449 C1    -25.505314   18.174479   -0.499925 C    2691 MOH     0.1166 ****
16450 HC2   -25.147934   19.175912   -0.264458 H    2691 MOH     0.0372 ****
16451 HC3   -25.855766   18.129572   -1.530887 H    2691 MOH     0.0372 ****
16452 O1    -24.424514   17.232650   -0.295571 O    2691 MOH    -0.6497 ****
16453 HO1   -23.591398   17.620894   -0.573464 H    2691 MOH     0.4215 ****
16454 HC1   -32.548872   -6.602110  -13.424988 H    2692 MOH     0.0372 ****
16455 C1    -32.115282   -6.409008  -12.444231 C    2692 MOH     0.1166 ****
16456 HC2   -31.829493   -5.358177  -12.393319 H    2692 MOH     0.0372 ****
16457 HC3   -31.227317   -7.028321  -12.317659 H    2692 MOH     0.0372 ****
16458 O1    -33.069642   -6.723768  -11.436604 O    2692 MOH    -0.6497 ****
16459 HO1   -32.868724   -7.615382  -11.143862 H    2692 MOH     0.4215 ****
16460 HC1   -28.479130   -8.213466  -18.040274 H    2693 MOH     0.0372 ****
16461 C1    -28.673697   -7.472087  -17.265285 C    2693 MOH     0.1166 ****
16462 HC2   -29.737753   -7.430037  -17.032647 H    2693 MOH     0.0372 ****
16463 HC3   -28.372320   -6.483718  -17.612475 H    2693 MOH     0.0372 ****
16464 O1    -28.003971   -7.802360  -16.054011 O    2693 MOH    -0.6497 ****
16465 HO1   -28.221632   -8.696832  -15.781775 H    2693 MOH     0.4215 ****
16466 HC1   -28.800137   -6.183655  -14.258667 H    2694 MOH     0.0372 ****
16467 C1    -28.717575   -5.243868  -13.712781 C    2694 MOH     0.1166 ****
16468 HC2   -29.544341   -4.588221  -13.985724 H    2694 MOH     0.0372 ****
16469 HC3   -27.760329   -4.781731  -13.957440 H    2694 MOH     0.0372 ****
16470 O1    -28.758567   -5.601901  -12.371399 O    2694 MOH    -0.6497 ****
16471 HO1   -28.534555   -4.858890  -11.807128 H    2694 MOH     0.4215 ****
16472 HC1   -31.042565  -10.504963  -19.718239 H    2695 MOH     0.0372 ****
16473 C1    -31.565067   -9.575790  -19.490550 C    2695 MOH     0.1166 ****
16474 HC2   -32.597369   -9.788896  -19.211950 H    2695 MOH     0.0372 ****
16475 HC3   -31.524652   -8.929533  -20.366655 H    2695 MOH     0.0372 ****
16476 O1    -30.877443   -9.012408  -18.424233 O    2695 MOH    -0.6497 ****
16477 HO1   -30.414985   -9.727659  -17.981584 H    2695 MOH     0.4215 ****
16478 HC1   -32.239412   -4.922576   -6.383619 H    2696 MOH     0.0372 ****
16479 C1    -32.492292   -4.057906   -5.769850 C    2696 MOH     0.1166 ****
16480 HC2   -31.684579   -3.874603   -5.062036 H    2696 MOH     0.0372 ****
16481 HC3   -33.410279   -4.290608   -5.231035 H    2696 MOH     0.0372 ****
16482 O1    -32.684549   -2.949512   -6.626157 O    2696 MOH    -0.6497 ****
16483 HO1   -33.369864   -3.220589   -7.241339 H    2696 MOH     0.4215 ****
16484 HC1   -31.145911  -11.224297  -10.982641 H    2697 MOH     0.0372 ****
16485 C1    -31.977295  -10.540889  -11.152347 C    2697 MOH     0.1166 ****
16486 HC2   -32.899323  -11.000985  -10.795258 H    2697 MOH     0.0372 ****
16487 HC3   -32.047732  -10.352687  -12.223614 H    2697 MOH     0.0372 ****
16488 O1    -31.649360   -9.320227  -10.500395 O    2697 MOH    -0.6497 ****
16489 HO1   -31.036214   -9.517411   -9.788338 H    2697 MOH     0.4215 ****
16490 HC1   -31.386088   -8.397994  -14.960117 H    2698 MOH     0.0372 ****
16491 C1    -32.395874   -8.718877  -15.216090 C    2698 MOH     0.1166 ****
16492 HC2   -33.093313   -8.288175  -14.496962 H    2698 MOH     0.0372 ****
16493 HC3   -32.477280   -9.805226  -15.181441 H    2698 MOH     0.0372 ****
16494 O1    -32.750944   -8.259598  -16.488175 O    2698 MOH    -0.6497 ****
16495 HO1   -32.152232   -8.667030  -17.117500 H    2698 MOH     0.4215 ****
16496 HC1   -29.241809  -12.689500  -16.025020 H    2699 MOH     0.0372 ****
16497 C1    -30.147672  -12.364943  -16.536258 C    2699 MOH     0.1166 ****
16498 HC2   -31.033327  -12.757678  -16.037041 H    2699 MOH     0.0372 ****
16499 HC3   -30.140166  -12.713178  -17.569341 H    2699 MOH     0.0372 ****
16500 O1    -30.240625  -10.972816  -16.522116 O    2699 MOH    -0.6497 ****
16501 HO1   -29.970426  -10.687450  -15.646011 H    2699 MOH     0.4215 ****
16502 HC1   -29.641913  -13.795445  -11.587925 H    2700 MOH     0.0372 ****
16503 C1    -29.257975  -13.198586  -12.415240 C    2700 MOH     0.1166 ****
16504 HC2   -28.570351  -13.815857  -12.993653 H    2700 MOH     0.0372 ****
16505 HC3   -28.756835  -12.336774  -11.973298 H    2700 MOH     0.0372 ****
16506 O1    -30.323187  -12.758902  -13.202249 O    2700 MOH    -0.6497 ****
16507 HO1   -30.852617  -13.514978  -13.463879 H    2700 MOH     0.4215 ****
16508 HC1   -29.749878   -8.338798  -12.852232 H    2701 MOH     0.0372 ****
16509 C1    -29.109596   -9.214082  -12.743337 C    2701 MOH     0.1166 ****
16510 HC2   -29.259707   -9.614982  -11.740660 H    2701 MOH     0.0372 ****
16511 HC3   -28.070943   -8.901364  -12.849403 H    2701 MOH     0.0372 ****
16512 O1    -29.488915  -10.155911  -13.746722 O    2701 MOH    -0.6497 ****
16513 HO1   -29.559930  -11.029154  -13.354277 H    2701 MOH     0.4215 ****
16514 HC1   -31.614142   -6.125276   -8.431400 H    2702 MOH     0.0372 ****
16515 C1    -30.755622   -5.763568   -8.997086 C    2702 MOH     0.1166 ****
16516 HC2   -31.103764   -5.244276   -9.889454 H    2702 MOH     0.0372 ****
16517 HC3   -30.126310   -6.604151   -9.290535 H    2702 MOH     0.0372 ****
16518 O1    -30.006221   -4.873995   -8.201590 O    2702 MOH    -0.6497 ****
16519 HO1   -29.838790   -5.292449   -7.353769 H    2702 MOH     0.4215 ****
16520 HC1   -30.815089   -4.804184  -18.363422 H    2703 MOH     0.0372 ****
16521 C1    -31.261958   -4.390221  -19.267104 C    2703 MOH     0.1166 ****
16522 HC2   -32.289642   -4.071379  -19.095277 H    2703 MOH     0.0372 ****
16523 HC3   -31.231358   -5.162626  -20.036437 H    2703 MOH     0.0372 ****
16524 O1    -30.451358   -3.325917  -19.655306 O    2703 MOH    -0.6497 ****
16525 HO1   -30.269493   -2.779681  -18.887388 H    2703 MOH     0.4215 ****
16526 HC1   -27.209075    5.051174   -7.644390 H    2704 MOH     0.0372 ****
16527 C1    -27.147876    5.830929   -6.886372 C    2704 MOH     0.1166 ****
16528 HC2   -26.787609    5.385122   -5.958648 H    2704 MOH     0.0372 ****
16529 HC3   -28.140918    6.256323   -6.740708 H    2704 MOH     0.0372 ****
16530 O1    -26.276654    6.853591   -7.314171 O    2704 MOH    -0.6497 ****
16531 HO1   -25.389844    6.493516   -7.380639 H    2704 MOH     0.4215 ****
16532 HC1   -20.950598    9.800327  -13.424988 H    2705 MOH     0.0372 ****
16533 C1    -20.517008    9.993428  -12.444231 C    2705 MOH     0.1166 ****
16534 HC2   -20.231219   11.044259  -12.393319 H    2705 MOH     0.0372 ****
16535 HC3   -19.629043    9.374116  -12.317659 H    2705 MOH     0.0372 ****
16536 O1    -21.471368    9.678669  -11.436604 O    2705 MOH    -0.6497 ****
16537 HO1   -21.270450    8.787054  -11.143862 H    2705 MOH     0.4215 ****
16538 HC1   -27.587816   -1.053362  -21.057499 H    2706 MOH     0.0372 ****
16539 C1    -27.774878   -2.039282  -20.632528 C    2706 MOH     0.1166 ****
16540 HC2   -28.166899   -1.944568  -19.619951 H    2706 MOH     0.0372 ****
16541 HC3   -26.817631   -2.555716  -20.563938 H    2706 MOH     0.0372 ****
16542 O1    -28.616077   -2.843123  -21.481763 O    2706 MOH    -0.6497 ****
16543 HO1   -29.331992   -3.189317  -20.944362 H    2706 MOH     0.4215 ****
16544 HC1   -24.957409   -0.581427  -14.420595 H    2707 MOH     0.0372 ****
16545 C1    -25.806114   -0.146643  -13.892386 C    2707 MOH     0.1166 ****
16546 HC2   -25.942368    0.880510  -14.230383 H    2707 MOH     0.0372 ****
16547 HC3   -25.641569   -0.158890  -12.814755 H    2707 MOH     0.0372 ****
16548 O1    -26.971784   -0.844747  -14.226140 O    2707 MOH    -0.6497 ****
16549 HO1   -26.944648   -1.645322  -13.696517 H    2707 MOH     0.4215 ****
16550 HC1   -32.767226   12.901789  -11.573076 H    2708 MOH     0.0372 ****
16551 C1    -32.163317   13.453332  -10.852534 C    2708 MOH     0.1166 ****
16552 HC2   -31.351563   12.818098  -10.498980 H    2708 MOH     0.0372 ****
16553 HC3   -32.811682   13.739106  -10.023805 H    2708 MOH     0.0372 ****
16554 O1    -31.658713   14.577240  -11.508022 O    2708 MOH    -0.6497 ****
16555 HO1   -30.845804   14.838927  -11.068909 H    2708 MOH     0.4215 ****
16556 HC1   -26.063034    6.494332  -24.034418 H    2709 MOH     0.0372 ****
16557 C1    -26.855159    5.961976  -23.508331 C    2709 MOH     0.1166 ****
16558 HC2   -26.828023    6.219581  -22.449792 H    2709 MOH     0.0372 ****
16559 HC3   -26.689459    4.894407  -23.650459 H    2709 MOH     0.0372 ****
16560 O1    -28.083760    6.377573  -24.064117 O    2709 MOH    -0.6497 ****
16561 HO1   -28.778313    6.018723  -23.506210 H    2709 MOH     0.4215 ****
16562 HC1   -21.997911   12.553145  -16.511509 H    2710 MOH     0.0372 ****
16563 C1    -21.949414   11.465571  -16.562421 C    2710 MOH     0.1166 ****
16564 HC2   -22.327578   11.110804  -17.520551 H    2710 MOH     0.0372 ****
16565 HC3   -22.556209   11.018948  -15.774704 H    2710 MOH     0.0372 ****
16566 O1    -20.612848   11.031195  -16.488882 O    2710 MOH    -0.6497 ****
16567 HO1   -20.645179   10.071812  -16.467669 H    2710 MOH     0.4215 ****
16568 HC1   -22.801005    6.971574  -23.589648 H    2711 MOH     0.0372 ****
16569 C1    -22.602397    7.932182  -23.115180 C    2711 MOH     0.1166 ****
16570 HC2   -21.537763    8.149371  -23.198618 H    2711 MOH     0.0372 ****
16571 HC3   -22.831605    7.897073  -22.050277 H    2711 MOH     0.0372 ****
16572 O1    -23.395676    8.927900  -23.766425 O    2711 MOH    -0.6497 ****
16573 HO1   -23.348333    9.703980  -23.202861 H    2711 MOH     0.4215 ****
16574 HC1   -23.959747    1.504313  -18.577675 H    2712 MOH     0.0372 ****
16575 C1    -23.912405    2.227729  -17.763088 C    2712 MOH     0.1166 ****
16576 HC2   -24.705684    2.955228  -17.934208 H    2712 MOH     0.0372 ****
16577 HC3   -22.951694    2.741306  -17.809757 H    2712 MOH     0.0372 ****
16578 O1    -24.097734    1.585963  -16.469083 O    2712 MOH    -0.6497 ****
16579 HO1   -24.289414    2.261614  -15.813595 H    2712 MOH     0.4215 ****
16580 HC1   -17.201862   10.218781  -14.258667 H    2713 MOH     0.0372 ****
16581 C1    -17.119301   11.158569  -13.712781 C    2713 MOH     0.1166 ****
16582 HC2   -17.946067   11.814216  -13.985724 H    2713 MOH     0.0372 ****
16583 HC3   -16.162055   11.620706  -13.957440 H    2713 MOH     0.0372 ****
16584 O1    -17.160293   10.800535  -12.371399 O    2713 MOH    -0.6497 ****
16585 HO1   -16.936281   11.543547  -11.807128 H    2713 MOH     0.4215 ****
16586 HC1   -29.294464   14.843010  -14.515347 H    2714 MOH     0.0372 ****
16587 C1    -29.960149   15.701964  -14.430494 C    2714 MOH     0.1166 ****
16588 HC2   -31.002266   15.381897  -14.437565 H    2714 MOH     0.0372 ****
16589 HC3   -29.825049   16.326584  -15.312963 H    2714 MOH     0.0372 ****
16590 O1    -29.734405   16.498865  -13.226998 O    2714 MOH    -0.6497 ****
16591 HO1   -29.807151   15.931808  -12.456959 H    2714 MOH     0.4215 ****
16592 HC1   -29.219986    4.188954   -5.565496 H    2715 MOH     0.0372 ****
16593 C1    -28.920341    3.141797   -5.580346 C    2715 MOH     0.1166 ****
16594 HC2   -28.286410    2.953186   -6.447258 H    2715 MOH     0.0372 ****
16595 HC3   -29.788098    2.487783   -5.659542 H    2715 MOH     0.0372 ****
16596 O1    -28.215396    2.830712   -4.386749 O    2715 MOH    -0.6497 ****
16597 HO1   -27.781229    1.982372   -4.505543 H    2715 MOH     0.4215 ****
16598 HC1   -22.414181   -1.158690  -17.973099 H    2716 MOH     0.0372 ****
16599 C1    -23.094299   -1.727380  -17.338824 C    2716 MOH     0.1166 ****
16600 HC2   -22.739806   -1.690230  -16.308570 H    2716 MOH     0.0372 ****
16601 HC3   -23.149148   -2.763923  -17.670457 H    2716 MOH     0.0372 ****
16602 O1    -24.326942   -1.104393  -17.420849 O    2716 MOH    -0.6497 ****
16603 HO1   -24.224751   -0.211554  -17.084973 H    2716 MOH     0.4215 ****
16604 HC1   -31.312880   22.010625   -8.658382 H    2717 MOH     0.0372 ****
16605 C1    -31.654672   21.341098   -9.447513 C    2717 MOH     0.1166 ****
16606 HC2   -32.152925   20.464997   -9.031734 H    2717 MOH     0.0372 ****
16607 HC3   -30.782296   21.023072  -10.018148 H    2717 MOH     0.0372 ****
16608 O1    -32.435827   22.071046  -10.369580 O    2717 MOH    -0.6497 ****
16609 HO1   -32.408691   21.584005  -11.196188 H    2717 MOH     0.4215 ****
16610 HC1   -28.546218    5.304697  -12.989410 H    2718 MOH     0.0372 ****
16611 C1    -28.686514    5.150379  -14.058556 C    2718 MOH     0.1166 ****
16612 HC2   -28.882813    6.104863  -14.547874 H    2718 MOH     0.0372 ****
16613 HC3   -29.520785    4.471462  -14.234626 H    2718 MOH     0.0372 ****
16614 O1    -27.511029    4.595978  -14.610099 O    2718 MOH    -0.6497 ****
16615 HO1   -26.864397    4.495140  -13.907942 H    2718 MOH     0.4215 ****
16616 HC1   -25.783020   13.341064  -11.698941 H    2719 MOH     0.0372 ****
16617 C1    -25.300355   12.375149  -11.846019 C    2719 MOH     0.1166 ****
16618 HC2   -26.073427   11.621114  -11.993804 H    2719 MOH     0.0372 ****
16619 HC3   -24.735706   12.132649  -10.946579 H    2719 MOH     0.0372 ****
16620 O1    -24.392183   12.402910  -12.968904 O    2719 MOH    -0.6497 ****
16621 HO1   -23.680887   13.007117  -12.739802 H    2719 MOH     0.4215 ****
16622 HC1   -31.090023    5.098531  -20.358170 H    2720 MOH     0.0372 ****
16623 C1    -31.251104    4.085667  -19.989768 C    2720 MOH     0.1166 ****
16624 HC2   -32.002237    4.130574  -19.202051 H    2720 MOH     0.0372 ****
16625 HC3   -30.326189    3.685176  -19.574696 H    2720 MOH     0.0372 ****
16626 O1    -31.702592    3.238960  -21.046185 O    2720 MOH    -0.6497 ****
16627 HO1   -31.297869    2.380822  -20.896278 H    2720 MOH     0.4215 ****
16628 HC1   -22.084514   -0.784327  -12.744044 H    2721 MOH     0.0372 ****
16629 C1    -22.250791   -0.697370  -11.669949 C    2721 MOH     0.1166 ****
16630 HC2   -22.178622    0.358769  -11.410441 H    2721 MOH     0.0372 ****
16631 HC3   -21.463862   -1.251363  -11.157297 H    2721 MOH     0.0372 ****
16632 O1    -23.576387   -1.216253  -11.435897 O    2721 MOH    -0.6497 ****
16633 HO1   -23.887579   -0.867609  -10.597268 H    2721 MOH     0.4215 ****
16634 HC1   -23.218430   16.612766   -3.562970 H    2722 MOH     0.0372 ****
16635 C1    -23.929725   15.786880   -3.573577 C    2722 MOH     0.1166 ****
16636 HC2   -23.567727   15.055707   -4.296947 H    2722 MOH     0.0372 ****
16637 HC3   -24.918726   16.159202   -3.843691 H    2722 MOH     0.0372 ****
16638 O1    -23.993234   15.213291   -2.288764 O    2722 MOH    -0.6497 ****
16639 HO1   -24.269207   15.897107   -1.674288 H    2722 MOH     0.4215 ****
16640 HC1   -27.288749   18.142472  -20.571009 H    2723 MOH     0.0372 ****
16641 C1    -27.869563   18.523776  -19.730967 C    2723 MOH     0.1166 ****
16642 HC2   -27.572228   19.530925  -19.438931 H    2723 MOH     0.0372 ****
16643 HC3   -27.661717   17.868538  -18.884560 H    2723 MOH     0.0372 ****
16644 O1    -29.248853   18.480094  -20.015931 O    2723 MOH    -0.6497 ****
16645 HO1   -29.654153   17.805259  -19.466509 H    2723 MOH     0.4215 ****
16646 HC1   -22.490968    5.353686  -13.925620 H    2724 MOH     0.0372 ****
16647 C1    -22.507711    4.346538  -14.343520 C    2724 MOH     0.1166 ****
16648 HC2   -22.005994    3.688033  -13.635706 H    2724 MOH     0.0372 ****
16649 HC3   -21.956342    4.317960  -15.283972 H    2724 MOH     0.0372 ****
16650 O1    -23.850628    3.910937  -14.492719 O    2724 MOH    -0.6497 ****
16651 HO1   -24.342531    4.171808  -13.709952 H    2724 MOH     0.4215 ****
16652 HC1   -28.356270    9.144680  -14.793947 H    2725 MOH     0.0372 ****
16653 C1    -29.419749    9.345538  -14.925469 C    2725 MOH     0.1166 ****
16654 HC2   -30.001718    8.424530  -14.898599 H    2725 MOH     0.0372 ****
16655 HC3   -29.584871    9.816248  -15.894912 H    2725 MOH     0.0372 ****
16656 O1    -29.870082   10.235928  -13.946126 O    2725 MOH    -0.6497 ****
16657 HO1   -29.759808   11.130400  -14.276345 H    2725 MOH     0.4215 ****
16658 HC1   -24.643330   12.072228  -17.590554 H    2726 MOH     0.0372 ****
16659 C1    -25.047475   12.418015  -18.541613 C    2726 MOH     0.1166 ****
16660 HC2   -25.980473   11.894640  -18.753745 H    2726 MOH     0.0372 ****
16661 HC3   -24.326365   12.273087  -19.345593 H    2726 MOH     0.0372 ****
16662 O1    -25.294004   13.784014  -18.387464 O    2726 MOH    -0.6497 ****
16663 HO1   -24.469548   14.239619  -18.199373 H    2726 MOH     0.4215 ****
16664 HC1   -28.875885    0.816415  -12.386955 H    2727 MOH     0.0372 ****
16665 C1    -29.061792    1.402251  -13.287102 C    2727 MOH     0.1166 ****
16666 HC2   -29.043894    0.778448  -14.180885 H    2727 MOH     0.0372 ****
16667 HC3   -28.314123    2.187721  -13.395997 H    2727 MOH     0.0372 ****
16668 O1    -30.304249    1.990537  -13.157702 O    2727 MOH    -0.6497 ****
16669 HO1   -30.602740    2.101172  -14.063506 H    2727 MOH     0.4215 ****
16670 HC1   -27.691162    4.391445  -10.967792 H    2728 MOH     0.0372 ****
16671 C1    -26.937143    3.637819  -11.195481 C    2728 MOH     0.1166 ****
16672 HC2   -27.423272    2.748246  -11.594996 H    2728 MOH     0.0372 ****
16673 HC3   -26.448127    3.348371  -10.265635 H    2728 MOH     0.0372 ****
16674 O1    -26.002990    4.179973  -12.140175 O    2728 MOH    -0.6497 ****
16675 HO1   -25.786484    5.077711  -11.880667 H    2728 MOH     0.4215 ****
16676 HC1   -29.445730   12.744205  -20.054114 H    2729 MOH     0.0372 ****
16677 C1    -29.683021   12.457615  -19.028810 C    2729 MOH     0.1166 ****
16678 HC2   -28.920918   11.795028  -18.619395 H    2729 MOH     0.0372 ****
16679 HC3   -30.636226   11.928933  -19.047901 H    2729 MOH     0.0372 ****
16680 O1    -29.784634   13.583972  -18.190888 O    2729 MOH    -0.6497 ****
16681 HO1   -29.010985   14.140414  -18.310389 H    2729 MOH     0.4215 ****
16682 HC1   -31.754553   -2.238099  -13.702174 H    2730 MOH     0.0372 ****
16683 C1    -32.161585   -1.237482  -13.847131 C    2730 MOH     0.1166 ****
16684 HC2   -33.207167   -1.283206  -14.152601 H    2730 MOH     0.0372 ****
16685 HC3   -31.605020   -0.779836  -14.663839 H    2730 MOH     0.0372 ****
16686 O1    -32.006855   -0.413637  -12.690304 O    2730 MOH    -0.6497 ****
16687 HO1   -31.723954    0.466546  -12.950520 H    2730 MOH     0.4215 ****
16688 HC1   -32.348647    2.167308  -11.479737 H    2731 MOH     0.0372 ****
16689 C1    -32.260312    3.153228  -11.023654 C    2731 MOH     0.1166 ****
16690 HC2   -32.861334    3.185071  -10.115729 H    2731 MOH     0.0372 ****
16691 HC3   -32.612496    3.888483  -11.747024 H    2731 MOH     0.0372 ****
16692 O1    -30.920282    3.356944  -10.716062 O    2731 MOH    -0.6497 ****
16693 HO1   -30.435308    2.890316  -11.399834 H    2731 MOH     0.4215 ****
16694 HC1   -22.403788   13.959560  -19.257205 H    2732 MOH     0.0372 ****
16695 C1    -21.983477   14.843010  -18.776372 C    2732 MOH     0.1166 ****
16696 HC2   -21.730021   15.584797  -19.533684 H    2732 MOH     0.0372 ****
16697 HC3   -21.096667   14.560094  -18.209980 H    2732 MOH     0.0372 ****
16698 O1    -22.988644   15.339439  -17.953300 O    2732 MOH    -0.6497 ****
16699 HO1   -22.632419   15.535807  -17.084266 H    2732 MOH     0.4215 ****
16700 HC1   -28.052583   16.267388   -6.681311 H    2733 MOH     0.0372 ****
16701 C1    -28.095307   17.141448   -7.331142 C    2733 MOH     0.1166 ****
16702 HC2   -27.294523   17.841593   -7.092847 H    2733 MOH     0.0372 ****
16703 HC3   -29.034656   17.657473   -7.135981 H    2733 MOH     0.0372 ****
16704 O1    -28.094730   16.787088   -8.722728 O    2733 MOH    -0.6497 ****
16705 HO1   -27.985611   17.579498   -9.253765 H    2733 MOH     0.4215 ****
16706 HC1   -30.385079   -2.670026  -10.665858 H    2734 MOH     0.0372 ****
16707 C1    -29.308898   -2.661861  -10.835563 C    2734 MOH     0.1166 ****
16708 HC2   -28.888587   -1.801681  -10.315840 H    2734 MOH     0.0372 ****
16709 HC3   -29.105093   -2.601440  -11.904709 H    2734 MOH     0.0372 ****
16710 O1    -28.715382   -3.806589  -10.334932 O    2734 MOH    -0.6497 ****
16711 HO1   -29.177262   -4.067868   -9.535901 H    2734 MOH     0.4215 ****
16712 HC1   -29.075648    8.255923  -19.482772 H    2735 MOH     0.0372 ****
16713 C1    -29.061214    8.963418  -20.312208 C    2735 MOH     0.1166 ****
16714 HC2   -30.051947    9.394528  -20.453630 H    2735 MOH     0.0372 ****
16715 HC3   -28.722310    8.470254  -21.222962 H    2735 MOH     0.0372 ****
16716 O1    -28.184219   10.015065  -20.005324 O    2735 MOH    -0.6497 ****
16717 HO1   -27.987920   10.022006  -19.065579 H    2735 MOH     0.4215 ****
16718 HC1   -22.944188    4.421247   -6.153102 H    2736 MOH     0.0372 ****
16719 C1    -22.869133    5.463097   -6.462815 C    2736 MOH     0.1166 ****
16720 HC2   -21.830480    5.687633   -6.706060 H    2736 MOH     0.0372 ****
16721 HC3   -23.231131    6.064447   -5.627722 H    2736 MOH     0.0372 ****
16722 O1    -23.757097    5.620681   -7.539031 O    2736 MOH    -0.6497 ****
16723 HO1   -23.389903    5.100164   -8.256745 H    2736 MOH     0.4215 ****
16724 HC1   -33.219291    0.508596   -5.604387 H    2737 MOH     0.0372 ****
16725 C1    -32.226826    0.529416   -6.054814 C    2737 MOH     0.1166 ****
16726 HC2   -31.703747    1.440627   -5.764900 H    2737 MOH     0.0372 ****
16727 HC3   -32.286870    0.473895   -7.140930 H    2737 MOH     0.0372 ****
16728 O1    -31.491859   -0.535295   -5.606509 O    2737 MOH    -0.6497 ****
16729 HO1   -31.938728   -1.331379   -5.902079 H    2737 MOH     0.4215 ****
16730 HC1   -24.321746   12.894440  -22.131594 H    2738 MOH     0.0372 ****
16731 C1    -23.578119   12.373516  -22.734049 C    2738 MOH     0.1166 ****
16732 HC2   -22.662441   12.963026  -22.782132 H    2738 MOH     0.0372 ****
16733 HC3   -23.914137   12.252266  -23.764304 H    2738 MOH     0.0372 ****
16734 O1    -23.239792   11.144688  -22.149979 O    2738 MOH    -0.6497 ****
16735 HO1   -23.943581   10.873203  -21.556716 H    2738 MOH     0.4215 ****
16736 HC1   -23.605832    7.217340  -17.471760 H    2739 MOH     0.0372 ****
16737 C1    -23.645091    6.147729  -17.676821 C    2739 MOH     0.1166 ****
16738 HC2   -24.423360    5.719477  -17.045375 H    2739 MOH     0.0372 ****
16739 HC3   -22.676298    5.711312  -17.432869 H    2739 MOH     0.0372 ****
16740 O1    -23.933767    5.855832  -19.045073 O    2739 MOH    -0.6497 ****
16741 HO1   -23.504218    5.041376  -19.317309 H    2739 MOH     0.4215 ****
16742 HC1   -26.043982    1.111578  -10.078252 H    2740 MOH     0.0372 ****
16743 C1    -25.792835    0.591062   -9.154063 C    2740 MOH     0.1166 ****
16744 HC2   -26.459674   -0.262585   -9.033148 H    2740 MOH     0.0372 ****
16745 HC3   -25.915810    1.260997   -8.303414 H    2740 MOH     0.0372 ****
16746 O1    -24.452805    0.160360   -9.250937 O    2740 MOH    -0.6497 ****
16747 HO1   -24.262856   -0.395266   -8.492211 H    2740 MOH     0.4215 ****
16748 HC1   -24.571161    8.042001  -20.099369 H    2741 MOH     0.0372 ****
16749 C1    -25.508201    8.297973  -20.592223 C    2741 MOH     0.1166 ****
16750 HC2   -26.346513    7.966067  -19.979161 H    2741 MOH     0.0372 ****
16751 HC3   -25.526676    7.799094  -21.560959 H    2741 MOH     0.0372 ****
16752 O1    -25.538800    9.681526  -20.809304 O    2741 MOH    -0.6497 ****
16753 HO1   -26.455055    9.922801  -20.961332 H    2741 MOH     0.4215 ****
16754 HC1   -27.900740    3.332041  -21.807032 H    2742 MOH     0.0372 ****
16755 C1    -27.595322    2.351837  -22.174020 C    2742 MOH     0.1166 ****
16756 HC2   -26.646158    2.431445  -22.703643 H    2742 MOH     0.0372 ****
16757 HC3   -28.362043    1.959510  -22.840822 H    2742 MOH     0.0372 ****
16758 O1    -27.441747    1.431237  -21.099925 O    2742 MOH    -0.6497 ****
16759 HO1   -26.592465    0.997269  -21.208113 H    2742 MOH     0.4215 ****
16760 HC1   -32.087685   10.013432   -6.172901 H    2743 MOH     0.0372 ****
16761 C1    -31.479735   10.884226   -6.421096 C    2743 MOH     0.1166 ****
16762 HC2   -30.430112   10.614782   -6.535647 H    2743 MOH     0.0372 ****
16763 HC3   -31.536315   11.606417   -5.605802 H    2743 MOH     0.0372 ****
16764 O1    -31.874642   11.446384   -7.630955 O    2743 MOH    -0.6497 ****
16765 HO1   -31.592895   10.847892   -8.326748 H    2743 MOH     0.4215 ****
16766 HC1   -26.507017   16.263305  -16.860820 H    2744 MOH     0.0372 ****
16767 C1    -27.521998   15.879960  -16.964765 C    2744 MOH     0.1166 ****
16768 HC2   -28.243109   16.697273  -16.943552 H    2744 MOH     0.0372 ****
16769 HC3   -27.756980   15.185122  -16.158663 H    2744 MOH     0.0372 ****
16770 O1    -27.649593   15.167975  -18.147047 O    2744 MOH    -0.6497 ****
16771 HO1   -26.929060   14.534782  -18.178867 H    2744 MOH     0.4215 ****
16772 HC1   -33.028188    2.269370  -15.971280 H    2745 MOH     0.0372 ****
16773 C1    -32.171400    2.011358  -16.594948 C    2745 MOH     0.1166 ****
16774 HC2   -31.985493    2.804584  -17.318318 H    2745 MOH     0.0372 ****
16775 HC3   -32.417351    1.107496  -17.152148 H    2745 MOH     0.0372 ****
16776 O1    -31.008039    1.820706  -15.793796 O    2745 MOH    -0.6497 ****
16777 HO1   -30.311755    1.472878  -16.355239 H    2745 MOH     0.4215 ****
16778 HC1   -26.973516    1.929300  -16.787988 H    2746 MOH     0.0372 ****
16779 C1    -27.471769    1.153628  -17.367816 C    2746 MOH     0.1166 ****
16780 HC2   -26.744885    0.408167  -17.690256 H    2746 MOH     0.0372 ****
16781 HC3   -27.934227    1.627604  -18.234021 H    2746 MOH     0.0372 ****
16782 O1    -28.446914    0.522884  -16.570906 O    2746 MOH    -0.6497 ****
16783 HO1   -27.975218    0.153828  -15.821373 H    2746 MOH     0.4215 ****
16784 HC1   -23.632967    7.981172   -9.600955 H    2747 MOH     0.0372 ****
16785 C1    -24.255351    8.875644   -9.610147 C    2747 MOH     0.1166 ****
16786 HC2   -23.811368    9.662747   -9.000621 H    2747 MOH     0.0372 ****
16787 HC3   -25.227031    8.597627   -9.200732 H    2747 MOH     0.0372 ****
16788 O1    -24.434907    9.328392  -10.931730 O    2747 MOH    -0.6497 ****
16789 HO1   -23.577542    9.603959  -11.264777 H    2747 MOH     0.4215 ****
16790 HC1   -27.649016   13.628063  -21.081541 H    2748 MOH     0.0372 ****
16791 C1    -27.056077   13.289625  -21.930776 C    2748 MOH     0.1166 ****
16792 HC2   -26.688882   12.293907  -21.682581 H    2748 MOH     0.0372 ****
16793 HC3   -26.209104   13.959560  -22.082804 H    2748 MOH     0.0372 ****
16794 O1    -27.860326   13.238594  -23.101037 O    2748 MOH    -0.6497 ****
16795 HO1   -27.453294   12.588254  -23.678744 H    2748 MOH     0.4215 ****
16796 HC1   -31.892540   13.948946  -15.419029 H    2749 MOH     0.0372 ****
16797 C1    -31.711252   12.910770  -15.139722 C    2749 MOH     0.1166 ****
16798 HC2   -32.370586   12.273495  -15.728742 H    2749 MOH     0.0372 ****
16799 HC3   -31.935841   12.756044  -14.084012 H    2749 MOH     0.0372 ****
16800 O1    -30.381037   12.515178  -15.380846 O    2749 MOH    -0.6497 ****
16801 HO1   -30.201481   12.623364  -16.317762 H    2749 MOH     0.4215 ****
16802 HC1   -28.004086    8.160802  -11.760459 H    2750 MOH     0.0372 ****
16803 C1    -27.550289    9.040168  -11.303668 C    2750 MOH     0.1166 ****
16804 HC2   -26.713131    9.356969  -11.925922 H    2750 MOH     0.0372 ****
16805 HC3   -27.246602    8.791137  -10.286848 H    2750 MOH     0.0372 ****
16806 O1    -28.500607   10.037927  -11.339023 O    2750 MOH    -0.6497 ****
16807 HO1   -28.828542   10.093449  -12.239877 H    2750 MOH     0.4215 ****
16808 HC1   -20.641138   11.479860   -6.383619 H    2751 MOH     0.0372 ****
16809 C1    -20.894018   12.344530   -5.769850 C    2751 MOH     0.1166 ****
16810 HC2   -20.086304   12.527834   -5.062036 H    2751 MOH     0.0372 ****
16811 HC3   -21.812004   12.111829   -5.231035 H    2751 MOH     0.0372 ****
16812 O1    -21.086275   13.452924   -6.626157 O    2751 MOH    -0.6497 ****
16813 HO1   -21.771590   13.181847   -7.241339 H    2751 MOH     0.4215 ****
16814 HC1   -24.381790    4.220389   -9.917739 H    2752 MOH     0.0372 ****
16815 C1    -23.559066    3.529633  -10.103001 C    2752 MOH     0.1166 ****
16816 HC2   -23.283670    3.650883  -11.150226 H    2752 MOH     0.0372 ****
16817 HC3   -23.867371    2.489825   -9.996227 H    2752 MOH     0.0372 ****
16818 O1    -22.469029    3.840310   -9.218410 O    2752 MOH    -0.6497 ****
16819 HO1   -21.858192    3.099748   -9.205682 H    2752 MOH     0.4215 ****
16820 HC1   -28.634552    5.561893  -19.112955 H    2753 MOH     0.0372 ****
16821 C1    -27.707328    5.385121  -18.569190 C    2753 MOH     0.1166 ****
16822 HC2   -27.773146    4.460439  -17.995726 H    2753 MOH     0.0372 ****
16823 HC3   -27.483893    6.221622  -17.906631 H    2753 MOH     0.0372 ****
16824 O1    -26.703893    5.283059  -19.499743 O    2753 MOH    -0.6497 ****
16825 HO1   -25.893871    5.623947  -19.112955 H    2753 MOH     0.4215 ****
16826 HC1   -30.731489    5.706005  -24.385850 H    2754 MOH     0.0372 ****
16827 C1    -30.451474    4.797652  -23.851985 C    2754 MOH     0.1166 ****
16828 HC2   -29.643183    4.302039  -24.389386 H    2754 MOH     0.0372 ****
16829 HC3   -31.282281    4.091791  -23.828650 H    2754 MOH     0.0372 ****
16830 O1    -30.013842    5.058931  -22.532524 O    2754 MOH    -0.6497 ****
16831 HO1   -30.361407    4.354294  -21.980980 H    2754 MOH     0.4215 ****
16832 HC1   -27.041066    7.407584   -2.499481 H    2755 MOH     0.0372 ****
16833 C1    -27.932495    8.034245   -2.531301 C    2755 MOH     0.1166 ****
16834 HC2   -28.821037    7.403501   -2.571606 H    2755 MOH     0.0372 ****
16835 HC3   -27.923257    8.652333   -3.429327 H    2755 MOH     0.0372 ****
16836 O1    -27.922102    8.881768   -1.409830 O    2755 MOH    -0.6497 ****
16837 HO1   -27.166351    9.461889   -1.526502 H    2755 MOH     0.4215 ****
16838 HC1   -19.787814    8.004442  -14.960117 H    2756 MOH     0.0372 ****
16839 C1    -20.797600    7.683559  -15.216090 C    2756 MOH     0.1166 ****
16840 HC2   -21.495039    8.114261  -14.496962 H    2756 MOH     0.0372 ****
16841 HC3   -20.879006    6.597211  -15.181441 H    2756 MOH     0.0372 ****
16842 O1    -21.152670    8.142839  -16.488175 O    2756 MOH    -0.6497 ****
16843 HO1   -20.553958    7.735407  -17.117500 H    2756 MOH     0.4215 ****
16844 HC1   -25.384071    8.669479   -3.912988 H    2757 MOH     0.0372 ****
16845 C1    -25.159481    9.735415   -3.862783 C    2757 MOH     0.1166 ****
16846 HC2   -25.518593   10.283285   -4.733939 H    2757 MOH     0.0372 ****
16847 HC3   -24.073485    9.781956   -3.934908 H    2757 MOH     0.0372 ****
16848 O1    -25.520325   10.333499   -2.596355 O    2757 MOH    -0.6497 ****
16849 HO1   -25.592494   11.282268   -2.722220 H    2757 MOH     0.4215 ****
16850 HC1   -26.297439   -4.781486  -12.545347 H    2758 MOH     0.0372 ****
16851 C1    -25.716047   -4.024185  -12.018553 C    2758 MOH     0.1166 ****
16852 HC2   -24.662383   -4.268318  -12.155731 H    2758 MOH     0.0372 ****
16853 HC3   -25.945832   -4.013571  -10.953650 H    2758 MOH     0.0372 ****
16854 O1    -25.844219   -2.763923  -12.570803 O    2758 MOH    -0.6497 ****
16855 HO1   -25.045743   -2.287497  -12.329680 H    2758 MOH     0.4215 ****
16856 HC1   -31.141985    6.575574   -7.463371 H    2759 MOH     0.0372 ****
16857 C1    -30.796729    5.732541   -8.060876 C    2759 MOH     0.1166 ****
16858 HC2   -30.056566    5.200593   -7.461957 H    2759 MOH     0.0372 ****
16859 HC3   -30.355056    6.118335   -8.979408 H    2759 MOH     0.0372 ****
16860 O1    -31.849239    4.814799   -8.394631 O    2759 MOH    -0.6497 ****
16861 HO1   -31.570379    4.301631   -9.156185 H    2759 MOH     0.4215 ****
16862 HC1   -23.984573   15.112862  -13.685911 H    2760 MOH     0.0372 ****
16863 C1    -24.477053   15.549279  -14.554945 C    2760 MOH     0.1166 ****
16864 HC2   -25.419289   16.036728  -14.304629 H    2760 MOH     0.0372 ****
16865 HC3   -24.729355   14.714820  -15.209726 H    2760 MOH     0.0372 ****
16866 O1    -23.639318   16.474370  -15.254981 O    2760 MOH    -0.6497 ****
16867 HO1   -24.180295   17.174107  -15.626919 H    2760 MOH     0.4215 ****
16868 HC1   -26.076891   -5.104002  -17.208009 H    2761 MOH     0.0372 ****
16869 C1    -26.109800   -4.018878  -17.307004 C    2761 MOH     0.1166 ****
16870 HC2   -25.664663   -3.549801  -16.429485 H    2761 MOH     0.0372 ****
16871 HC3   -27.147298   -3.693096  -17.381958 H    2761 MOH     0.0372 ****
16872 O1    -25.423908   -3.641657  -18.472316 O    2761 MOH    -0.6497 ****
16873 HO1   -25.322294   -2.688397  -18.432011 H    2761 MOH     0.4215 ****
16874 HC1   -25.109252    8.276744  -14.040171 H    2762 MOH     0.0372 ****
16875 C1    -24.445876    7.454940  -13.770763 C    2762 MOH     0.1166 ****
16876 HC2   -23.429740    7.841143  -13.692982 H    2762 MOH     0.0372 ****
16877 HC3   -24.459733    6.672328  -14.529489 H    2762 MOH     0.0372 ****
16878 O1    -24.824041    7.027913  -12.483829 O    2762 MOH    -0.6497 ****
16879 HO1   -24.770347    7.797052  -11.912487 H    2762 MOH     0.4215 ****
16880 HC1   -21.329340   14.475994   -9.936830 H    2763 MOH     0.0372 ****
16881 C1    -21.668822   13.730125  -10.655958 C    2763 MOH     0.1166 ****
16882 HC2   -22.175158   12.892808  -10.174418 H    2763 MOH     0.0372 ****
16883 HC3   -20.782012   13.333307  -11.150933 H    2763 MOH     0.0372 ****
16884 O1    -22.510021   14.350662  -11.610552 O    2763 MOH    -0.6497 ****
16885 HO1   -21.980591   15.035703  -12.026331 H    2763 MOH     0.4215 ****
16886 HC1   -30.622947    7.239793  -18.917794 H    2764 MOH     0.0372 ****
16887 C1    -31.253413    6.926259  -18.086236 C    2764 MOH     0.1166 ****
16888 HC2   -32.229713    6.613541  -18.456760 H    2764 MOH     0.0372 ****
16889 HC3   -31.423732    7.753370  -17.396100 H    2764 MOH     0.0372 ****
16890 O1    -30.651237    5.872162  -17.390443 O    2764 MOH    -0.6497 ****
16891 HO1   -31.301911    5.517802  -16.780917 H    2764 MOH     0.4215 ****
16892 HC1   -27.960785   11.972208  -15.773997 H    2765 MOH     0.0372 ****
16893 C1    -27.304337   12.247775  -14.948803 C    2765 MOH     0.1166 ****
16894 HC2   -27.851088   12.211849  -14.005523 H    2765 MOH     0.0372 ****
16895 HC3   -26.957927   13.270437  -15.099417 H    2765 MOH     0.0372 ****
16896 O1    -26.185433   11.375757  -14.883750 O    2765 MOH    -0.6497 ****
16897 HO1   -25.580370   11.702356  -14.213412 H    2765 MOH     0.4215 ****
16898 HC1   -24.184337   16.687067   -8.006429 H    2766 MOH     0.0372 ****
16899 C1    -24.496106   16.268204   -7.049006 C    2766 MOH     0.1166 ****
16900 HC2   -25.023227   17.014482   -6.456451 H    2766 MOH     0.0372 ****
16901 HC3   -23.603522   15.934666   -6.520798 H    2766 MOH     0.0372 ****
16902 O1    -25.310747   15.154095   -7.275988 O    2766 MOH    -0.6497 ****
16903 HO1   -25.996639   15.395370   -7.901777 H    2766 MOH     0.4215 ****
16904 HC1   -29.347003   13.611325   -9.214167 H    2767 MOH     0.0372 ****
16905 C1    -28.765034   13.853824  -10.103708 C    2767 MOH     0.1166 ****
16906 HC2   -28.801407   13.032020  -10.818593 H    2767 MOH     0.0372 ****
16907 HC3   -27.737928   13.997119   -9.766418 H    2767 MOH     0.0372 ****
16908 O1    -29.230955   15.098165  -10.635452 O    2767 MOH    -0.6497 ****
16909 HO1   -28.815263   15.775449  -10.097344 H    2767 MOH     0.4215 ****
16910 HC1   -31.852703    9.045067  -11.542670 H    2768 MOH     0.0372 ****
16911 C1    -31.689890    8.820939  -10.488374 C    2768 MOH     0.1166 ****
16912 HC2   -31.122355    7.894215  -10.396450 H    2768 MOH     0.0372 ****
16913 HC3   -32.673695    8.703364  -10.034411 H    2768 MOH     0.0372 ****
16914 O1    -30.997070    9.897490   -9.896525 O    2768 MOH    -0.6497 ****
16915 HO1   -30.158757    9.988121  -10.354731 H    2768 MOH     0.4215 ****
16916 HC1   -32.130408    8.940148  -20.878601 H    2769 MOH     0.0372 ****
16917 C1    -32.263776    7.917486  -21.231447 C    2769 MOH     0.1166 ****
16918 HC2   -33.262592    7.839918  -21.659954 H    2769 MOH     0.0372 ****
16919 HC3   -32.190453    7.200602  -20.414032 H    2769 MOH     0.0372 ****
16920 O1    -31.343480    7.640285  -22.243317 O    2769 MOH    -0.6497 ****
16921 HO1   -31.227432    6.692332  -22.335241 H    2769 MOH     0.4215 ****
16922 HC1   -29.943405   -0.334437  -21.920876 H    2770 MOH     0.0372 ****
16923 C1    -30.680104    0.011349  -21.196092 C    2770 MOH     0.1166 ****
16924 HC2   -30.950882   -0.796574  -20.515148 H    2770 MOH     0.0372 ****
16925 HC3   -31.588854    0.311003  -21.716522 H    2770 MOH     0.0372 ****
16926 O1    -30.240164    1.092799  -20.402011 O    2770 MOH    -0.6497 ****
16927 HO1   -29.292732    1.024213  -20.266246 H    2770 MOH     0.4215 ****
16928 HC1   -31.106189   -2.585110  -16.158663 H    2771 MOH     0.0372 ****
16929 C1    -30.071000   -2.280965  -16.314934 C    2771 MOH     0.1166 ****
16930 HC2   -29.482103   -3.183602  -16.482518 H    2771 MOH     0.0372 ****
16931 HC3   -29.698032   -1.724114  -15.456506 H    2771 MOH     0.0372 ****
16932 O1    -30.073309   -1.549384  -17.491559 O    2771 MOH    -0.6497 ****
16933 HO1   -29.435915   -0.840257  -17.381958 H    2771 MOH     0.4215 ****
16934 HC1   -27.577424   11.603151   -6.987488 H    2772 MOH     0.0372 ****
16935 C1    -27.513916   10.680102   -7.563780 C    2772 MOH     0.1166 ****
16936 HC2   -26.482191   10.475978   -7.849451 H    2772 MOH     0.0372 ****
16937 HC3   -28.131103   10.791962   -8.454735 H    2772 MOH     0.0372 ****
16938 O1    -28.031799    9.626821   -6.798691 O    2772 MOH    -0.6497 ****
16939 HO1   -27.781806    8.802160   -7.222955 H    2772 MOH     0.4215 ****
16940 HC1   -20.015868   10.277161   -8.431400 H    2773 MOH     0.0372 ****
16941 C1    -19.157348   10.638869   -8.997086 C    2773 MOH     0.1166 ****
16942 HC2   -19.505490   11.158161   -9.889454 H    2773 MOH     0.0372 ****
16943 HC3   -18.528036    9.798286   -9.290535 H    2773 MOH     0.0372 ****
16944 O1    -18.407947   11.528442   -8.201590 O    2773 MOH    -0.6497 ****
16945 HO1   -18.240516   11.109987   -7.353769 H    2773 MOH     0.4215 ****
16946 HC1   -19.216815   11.598252  -18.363422 H    2774 MOH     0.0372 ****
16947 C1    -19.663684   12.012216  -19.267104 C    2774 MOH     0.1166 ****
16948 HC2   -20.691367   12.331058  -19.095277 H    2774 MOH     0.0372 ****
16949 HC3   -19.633084   11.239810  -20.036437 H    2774 MOH     0.0372 ****
16950 O1    -18.853084   13.076519  -19.655306 O    2774 MOH    -0.6497 ****
16951 HO1   -18.671219   13.622755  -18.887388 H    2774 MOH     0.4215 ****
16952 HC1   -25.990866    9.345946  -23.769253 H    2775 MOH     0.0372 ****
16953 C1    -26.915203    9.861156  -24.030883 C    2775 MOH     0.1166 ****
16954 HC2   -27.628231    9.814207  -23.207103 H    2775 MOH     0.0372 ****
16955 HC3   -27.351103    9.414940  -24.923959 H    2775 MOH     0.0372 ****
16956 O1    -26.677335   11.210416  -24.310190 O    2775 MOH    -0.6497 ****
16957 HO1   -26.172731   11.240627  -25.126191 H    2775 MOH     0.4215 ****
16958 HC1   -27.434241   14.425372   -3.130221 H    2776 MOH     0.0372 ****
16959 C1    -26.996610   13.521918   -3.555192 C    2776 MOH     0.1166 ****
16960 HC2   -26.752968   13.717061   -4.598881 H    2776 MOH     0.0372 ****
16961 HC3   -27.702132   12.695624   -3.461854 H    2776 MOH     0.0372 ****
16962 O1    -25.860385   13.224305   -2.807780 O    2776 MOH    -0.6497 ****
16963 HO1   -25.232805   13.950171   -2.855863 H    2776 MOH     0.4215 ****
16964 HC1   -30.654124    7.227546   -3.763081 H    2777 MOH     0.0372 ****
16965 C1    -31.064620    6.271020   -3.439933 C    2777 MOH     0.1166 ****
16966 HC2   -30.285774    5.508413   -3.418720 H    2777 MOH     0.0372 ****
16967 HC3   -31.849816    5.992187   -4.142090 H    2777 MOH     0.0372 ****
16968 O1    -31.660445    6.415540   -2.184112 O    2777 MOH    -0.6497 ****
16969 HO1   -31.039794    6.864613   -1.605698 H    2777 MOH     0.4215 ****
16970 HC1   -26.343049   -6.657387  -14.045121 H    2778 MOH     0.0372 ****
16971 C1    -25.505314   -6.429176  -14.704851 C    2778 MOH     0.1166 ****
16972 HC2   -25.147934   -5.427743  -14.469385 H    2778 MOH     0.0372 ****
16973 HC3   -25.855766   -6.474083  -15.735813 H    2778 MOH     0.0372 ****
16974 O1    -24.424514   -7.371005  -14.500498 O    2778 MOH    -0.6497 ****
16975 HO1   -23.591398   -6.982761  -14.778390 H    2778 MOH     0.4215 ****
16976 HC1   -32.149461    4.197935  -14.429787 H    2779 MOH     0.0372 ****
16977 C1    -32.461230    5.241418  -14.465142 C    2779 MOH     0.1166 ****
16978 HC2   -31.655249    5.898698  -14.137045 H    2779 MOH     0.0372 ****
16979 HC3   -33.304161    5.364709  -13.786320 H    2779 MOH     0.0372 ****
16980 O1    -32.914450    5.587613  -15.759148 O    2779 MOH    -0.6497 ****
16981 HO1   -33.125760    6.523318  -15.729449 H    2779 MOH     0.4215 ****
16982 HC1   -25.453353   12.211441   -6.932334 H    2780 MOH     0.0372 ****
16983 C1    -24.527860   12.511095   -6.438773 C    2780 MOH     0.1166 ****
16984 HC2   -24.083878   11.657040   -5.926828 H    2780 MOH     0.0372 ****
16985 HC3   -24.773811   13.263089   -5.689240 H    2780 MOH     0.0372 ****
16986 O1    -23.645669   13.010383   -7.464785 O    2780 MOH    -0.6497 ****
16987 HO1   -23.836194   13.948538   -7.539739 H    2780 MOH     0.4215 ****
16988 HC1   -27.036447   16.080410  -11.584389 H    2781 MOH     0.0372 ****
16989 C1    -26.090747   16.423339  -11.164368 C    2781 MOH     0.1166 ****
16990 HC2   -26.204485   17.397827  -10.688485 H    2781 MOH     0.0372 ****
16991 HC3   -25.360976   16.536832  -11.966227 H    2781 MOH     0.0372 ****
16992 O1    -25.649074   15.501106  -10.192096 O    2781 MOH    -0.6497 ****
16993 HO1   -24.817690   15.112862  -10.474232 H    2781 MOH     0.4215 ****
16994 HC1   -27.118431    8.014649  -16.513631 H    2782 MOH     0.0372 ****
16995 C1    -26.336698    8.687850  -16.865063 C    2782 MOH     0.1166 ****
16996 HC2   -25.777246    8.253066  -17.693085 H    2782 MOH     0.0372 ****
16997 HC3   -25.651384    8.892791  -16.043405 H    2782 MOH     0.0372 ****
16998 O1    -26.910585    9.887284  -17.310540 O    2782 MOH    -0.6497 ****
16999 HO1   -26.715440   10.530683  -16.624646 H    2782 MOH     0.4215 ****
17000 HC1   -27.720145   20.214577  -12.150782 H    2783 MOH     0.0372 ****
17001 C1    -28.520930   19.820618  -11.524992 C    2783 MOH     0.1166 ****
17002 HC2   -29.086733   19.090262  -12.104113 H    2783 MOH     0.0372 ****
17003 HC3   -29.193543   20.597514  -11.163661 H    2783 MOH     0.0372 ****
17004 O1    -28.023831   19.079647  -10.480596 O    2783 MOH    -0.6497 ****
17005 HO1   -27.479390   19.675690   -9.961579 H    2783 MOH     0.4215 ****
17006 HC1   -15.610801   21.453611   -7.644390 H    2784 MOH     0.0372 ****
17007 C1    -15.549602   22.233365   -6.886372 C    2784 MOH     0.1166 ****
17008 HC2   -15.189335   21.787558   -5.958648 H    2784 MOH     0.0372 ****
17009 HC3   -16.542644   22.658760   -6.740708 H    2784 MOH     0.0372 ****
17010 O1    -14.678380   23.256027   -7.314171 O    2784 MOH    -0.6497 ****
17011 HO1   -13.791570   22.895952   -7.380639 H    2784 MOH     0.4215 ****
17012 HC1    -9.352324   26.202763  -13.424988 H    2785 MOH     0.0372 ****
17013 C1     -8.918734   26.395865  -12.444231 C    2785 MOH     0.1166 ****
17014 HC2    -8.632945   27.446696  -12.393319 H    2785 MOH     0.0372 ****
17015 HC3    -8.030769   25.776552  -12.317659 H    2785 MOH     0.0372 ****
17016 O1     -9.873094   26.081105  -11.436604 O    2785 MOH    -0.6497 ****
17017 HO1    -9.672176   25.189491  -11.143862 H    2785 MOH     0.4215 ****
17018 HC1   -15.989542   15.349074  -21.057499 H    2786 MOH     0.0372 ****
17019 C1    -16.176604   14.363155  -20.632528 C    2786 MOH     0.1166 ****
17020 HC2   -16.568625   14.457868  -19.619951 H    2786 MOH     0.0372 ****
17021 HC3   -15.219357   13.846720  -20.563938 H    2786 MOH     0.0372 ****
17022 O1    -17.017803   13.559314  -21.481763 O    2786 MOH    -0.6497 ****
17023 HO1   -17.733717   13.213119  -20.944362 H    2786 MOH     0.4215 ****
17024 HC1   -13.359135   15.821009  -14.420595 H    2787 MOH     0.0372 ****
17025 C1    -14.207839   16.255794  -13.892386 C    2787 MOH     0.1166 ****
17026 HC2   -14.344094   17.282946  -14.230383 H    2787 MOH     0.0372 ****
17027 HC3   -14.043295   16.243546  -12.814755 H    2787 MOH     0.0372 ****
17028 O1    -15.373510   15.557689  -14.226140 O    2787 MOH    -0.6497 ****
17029 HO1   -15.346374   14.757114  -13.696517 H    2787 MOH     0.4215 ****
17030 HC1    -5.282582   24.591407  -18.040274 H    2788 MOH     0.0372 ****
17031 C1     -5.477149   25.332786  -17.265285 C    2788 MOH     0.1166 ****
17032 HC2    -6.541205   25.374836  -17.032647 H    2788 MOH     0.0372 ****
17033 HC3    -5.175772   26.321155  -17.612475 H    2788 MOH     0.0372 ****
17034 O1     -4.807422   25.002513  -16.054011 O    2788 MOH    -0.6497 ****
17035 HO1    -5.025083   24.108041  -15.781775 H    2788 MOH     0.4215 ****
17036 HC1   -14.464760   22.896769  -24.034418 H    2789 MOH     0.0372 ****
17037 C1    -15.256885   22.364413  -23.508331 C    2789 MOH     0.1166 ****
17038 HC2   -15.229749   22.622017  -22.449792 H    2789 MOH     0.0372 ****
17039 HC3   -15.091185   21.296843  -23.650459 H    2789 MOH     0.0372 ****
17040 O1    -16.485486   22.780009  -24.064117 O    2789 MOH    -0.6497 ****
17041 HO1   -17.180039   22.421159  -23.506210 H    2789 MOH     0.4215 ****
17042 HC1   -23.107117   23.982709   -7.188306 H    2790 MOH     0.0372 ****
17043 C1    -24.127294   23.689995   -6.940112 C    2790 MOH     0.1166 ****
17044 HC2   -24.288375   23.747558   -5.864603 H    2790 MOH     0.0372 ****
17045 HC3   -24.335718   22.667741   -7.256896 H    2790 MOH     0.0372 ****
17046 O1    -25.013527   24.582426   -7.541153 O    2790 MOH    -0.6497 ****
17047 HO1   -24.562039   24.958831   -8.300585 H    2790 MOH     0.4215 ****
17048 HC1   -10.399637   28.955581  -16.511509 H    2791 MOH     0.0372 ****
17049 C1    -10.351140   27.868008  -16.562421 C    2791 MOH     0.1166 ****
17050 HC2   -10.729304   27.513240  -17.520551 H    2791 MOH     0.0372 ****
17051 HC3   -10.957935   27.421384  -15.774704 H    2791 MOH     0.0372 ****
17052 O1     -9.014574   27.433632  -16.488882 O    2791 MOH    -0.6497 ****
17053 HO1    -9.046905   26.474248  -16.467669 H    2791 MOH     0.4215 ****
17054 HC1   -11.202731   23.374011  -23.589648 H    2792 MOH     0.0372 ****
17055 C1    -11.004123   24.334619  -23.115180 C    2792 MOH     0.1166 ****
17056 HC2    -9.939489   24.551807  -23.198618 H    2792 MOH     0.0372 ****
17057 HC3   -11.233331   24.299510  -22.050277 H    2792 MOH     0.0372 ****
17058 O1    -11.797402   25.330337  -23.766425 O    2792 MOH    -0.6497 ****
17059 HO1   -11.750059   26.106417  -23.202861 H    2792 MOH     0.4215 ****
17060 HC1   -25.627828   22.087212  -15.143965 H    2793 MOH     0.0372 ****
17061 C1    -24.713305   22.393398  -15.651668 C    2793 MOH     0.1166 ****
17062 HC2   -24.118057   23.047820  -15.014564 H    2793 MOH     0.0372 ****
17063 HC3   -24.988701   22.939635  -16.553936 H    2793 MOH     0.0372 ****
17064 O1    -24.011247   21.253977  -16.049769 O    2793 MOH    -0.6497 ****
17065 HO1   -23.076517   21.452794  -15.959966 H    2793 MOH     0.4215 ****
17066 HC1   -12.361473   17.906750  -18.577675 H    2794 MOH     0.0372 ****
17067 C1    -12.314131   18.630166  -17.763088 C    2794 MOH     0.1166 ****
17068 HC2   -13.107410   19.357664  -17.934208 H    2794 MOH     0.0372 ****
17069 HC3   -11.353420   19.143742  -17.809757 H    2794 MOH     0.0372 ****
17070 O1    -12.499460   17.988399  -16.469083 O    2794 MOH    -0.6497 ****
17071 HO1   -12.691140   18.664050  -15.813595 H    2794 MOH     0.4215 ****
17072 HC1    -5.603588   26.621218  -14.258667 H    2795 MOH     0.0372 ****
17073 C1     -5.521027   27.561005  -13.712781 C    2795 MOH     0.1166 ****
17074 HC2    -6.347793   28.216652  -13.985724 H    2795 MOH     0.0372 ****
17075 HC3    -4.563781   28.023142  -13.957440 H    2795 MOH     0.0372 ****
17076 O1     -5.562019   27.202972  -12.371399 O    2795 MOH    -0.6497 ****
17077 HO1    -5.338007   27.945983  -11.807128 H    2795 MOH     0.4215 ****
17078 HC1   -17.621712   20.591391   -5.565496 H    2796 MOH     0.0372 ****
17079 C1    -17.322067   19.544234   -5.580346 C    2796 MOH     0.1166 ****
17080 HC2   -16.688136   19.355623   -6.447258 H    2796 MOH     0.0372 ****
17081 HC3   -18.189824   18.890220   -5.659542 H    2796 MOH     0.0372 ****
17082 O1    -16.617122   19.233148   -4.386749 O    2796 MOH    -0.6497 ****
17083 HO1   -16.182955   18.384809   -4.505543 H    2796 MOH     0.4215 ****
17084 HC1   -10.815907   15.243746  -17.973099 H    2797 MOH     0.0372 ****
17085 C1    -11.496025   14.675056  -17.338824 C    2797 MOH     0.1166 ****
17086 HC2   -11.141532   14.712207  -16.308570 H    2797 MOH     0.0372 ****
17087 HC3   -11.550873   13.638514  -17.670457 H    2797 MOH     0.0372 ****
17088 O1    -12.728668   15.298043  -17.420849 O    2797 MOH    -0.6497 ****
17089 HO1   -12.626477   16.190882  -17.084973 H    2797 MOH     0.4215 ****
17090 HC1   -16.947944   21.707133  -12.989410 H    2798 MOH     0.0372 ****
17091 C1    -17.088240   21.552815  -14.058556 C    2798 MOH     0.1166 ****
17092 HC2   -17.284539   22.507300  -14.547874 H    2798 MOH     0.0372 ****
17093 HC3   -17.922511   20.873898  -14.234626 H    2798 MOH     0.0372 ****
17094 O1    -15.912755   20.998414  -14.610099 O    2798 MOH    -0.6497 ****
17095 HO1   -15.266122   20.897577  -13.907942 H    2798 MOH     0.4215 ****
17096 HC1   -14.184745   29.743501  -11.698941 H    2799 MOH     0.0372 ****
17097 C1    -13.702081   28.777585  -11.846019 C    2799 MOH     0.1166 ****
17098 HC2   -14.475153   28.023551  -11.993804 H    2799 MOH     0.0372 ****
17099 HC3   -13.137432   28.535086  -10.946579 H    2799 MOH     0.0372 ****
17100 O1    -12.793909   28.805346  -12.968904 O    2799 MOH    -0.6497 ****
17101 HO1   -12.082613   29.409554  -12.739802 H    2799 MOH     0.4215 ****
17102 HC1   -19.491749   21.500968  -20.358170 H    2800 MOH     0.0372 ****
17103 C1    -19.652830   20.488104  -19.989768 C    2800 MOH     0.1166 ****
17104 HC2   -20.403962   20.533011  -19.202051 H    2800 MOH     0.0372 ****
17105 HC3   -18.727915   20.087612  -19.574696 H    2800 MOH     0.0372 ****
17106 O1    -20.104318   19.641397  -21.046185 O    2800 MOH    -0.6497 ****
17107 HO1   -19.699595   18.783259  -20.896278 H    2800 MOH     0.4215 ****
17108 HC1   -10.486240   15.618110  -12.744044 H    2801 MOH     0.0372 ****
17109 C1    -10.652517   15.705067  -11.669949 C    2801 MOH     0.1166 ****
17110 HC2   -10.580348   16.761205  -11.410441 H    2801 MOH     0.0372 ****
17111 HC3    -9.865588   15.151074  -11.157297 H    2801 MOH     0.0372 ****
17112 O1    -11.978113   15.186183  -11.435897 O    2801 MOH    -0.6497 ****
17113 HO1   -12.289305   15.534827  -10.597268 H    2801 MOH     0.4215 ****
17114 HC1   -27.112773   24.188058   -9.545093 H    2802 MOH     0.0372 ****
17115 C1    -27.504216   23.418918  -10.209774 C    2802 MOH     0.1166 ****
17116 HC2   -27.004808   23.452803  -11.177803 H    2802 MOH     0.0372 ****
17117 HC3   -28.575778   23.581401  -10.334225 H    2802 MOH     0.0372 ****
17118 O1    -27.363343   22.152124   -9.624996 O    2802 MOH    -0.6497 ****
17119 HO1   -27.809634   22.151715   -8.775761 H    2802 MOH     0.4215 ****
17120 HC1   -10.892694   21.756123  -13.925620 H    2803 MOH     0.0372 ****
17121 C1    -10.909437   20.748974  -14.343520 C    2803 MOH     0.1166 ****
17122 HC2   -10.407720   20.090470  -13.635706 H    2803 MOH     0.0372 ****
17123 HC3   -10.358068   20.720397  -15.283972 H    2803 MOH     0.0372 ****
17124 O1    -12.252354   20.313373  -14.492719 O    2803 MOH    -0.6497 ****
17125 HO1   -12.744257   20.574244  -13.709952 H    2803 MOH     0.4215 ****
17126 HC1   -16.757996   25.547116  -14.793947 H    2804 MOH     0.0372 ****
17127 C1    -17.821475   25.747975  -14.925469 C    2804 MOH     0.1166 ****
17128 HC2   -18.403444   24.826966  -14.898599 H    2804 MOH     0.0372 ****
17129 HC3   -17.986597   26.218685  -15.894912 H    2804 MOH     0.0372 ****
17130 O1    -18.271808   26.638364  -13.946126 O    2804 MOH    -0.6497 ****
17131 HO1   -18.161534   27.532836  -14.276345 H    2804 MOH     0.4215 ****
17132 HC1   -13.045056   28.474665  -17.590554 H    2805 MOH     0.0372 ****
17133 C1    -13.449201   28.820451  -18.541613 C    2805 MOH     0.1166 ****
17134 HC2   -14.382199   28.297077  -18.753745 H    2805 MOH     0.0372 ****
17135 HC3   -12.728091   28.675523  -19.345593 H    2805 MOH     0.0372 ****
17136 O1    -13.695730   30.186450  -18.387464 O    2805 MOH    -0.6497 ****
17137 HO1   -12.871274   30.642055  -18.199373 H    2805 MOH     0.4215 ****
17138 HC1   -17.277611   17.218851  -12.386955 H    2806 MOH     0.0372 ****
17139 C1    -17.463518   17.804688  -13.287102 C    2806 MOH     0.1166 ****
17140 HC2   -17.445620   17.180884  -14.180885 H    2806 MOH     0.0372 ****
17141 HC3   -16.715849   18.590157  -13.395997 H    2806 MOH     0.0372 ****
17142 O1    -18.705975   18.392973  -13.157702 O    2806 MOH    -0.6497 ****
17143 HO1   -19.004465   18.503609  -14.063506 H    2806 MOH     0.4215 ****
17144 HC1   -16.092888   20.793882  -10.967792 H    2807 MOH     0.0372 ****
17145 C1    -15.338869   20.040255  -11.195481 C    2807 MOH     0.1166 ****
17146 HC2   -15.824998   19.150682  -11.594996 H    2807 MOH     0.0372 ****
17147 HC3   -14.849853   19.750807  -10.265635 H    2807 MOH     0.0372 ****
17148 O1    -14.404716   20.582409  -12.140175 O    2807 MOH    -0.6497 ****
17149 HO1   -14.188210   21.480147  -11.880667 H    2807 MOH     0.4215 ****
17150 HC1   -20.156279   14.164338  -13.702174 H    2808 MOH     0.0372 ****
17151 C1    -20.563311   15.164954  -13.847131 C    2808 MOH     0.1166 ****
17152 HC2   -21.608893   15.119230  -14.152601 H    2808 MOH     0.0372 ****
17153 HC3   -20.006746   15.622601  -14.663839 H    2808 MOH     0.0372 ****
17154 O1    -20.408581   15.988799  -12.690304 O    2808 MOH    -0.6497 ****
17155 HO1   -20.125680   16.868983  -12.950520 H    2808 MOH     0.4215 ****
17156 HC1   -20.750373   18.569745  -11.479737 H    2809 MOH     0.0372 ****
17157 C1    -20.662038   19.555665  -11.023654 C    2809 MOH     0.1166 ****
17158 HC2   -21.263060   19.587508  -10.115729 H    2809 MOH     0.0372 ****
17159 HC3   -21.014222   20.290920  -11.747024 H    2809 MOH     0.0372 ****
17160 O1    -19.322008   19.759380  -10.716062 O    2809 MOH    -0.6497 ****
17161 HO1   -18.837034   19.292753  -11.399834 H    2809 MOH     0.4215 ****
17162 HC1   -18.786804   13.732411  -10.665858 H    2810 MOH     0.0372 ****
17163 C1    -17.710624   13.740576  -10.835563 C    2810 MOH     0.1166 ****
17164 HC2   -17.290313   14.600755  -10.315840 H    2810 MOH     0.0372 ****
17165 HC3   -17.506819   13.800997  -11.904709 H    2810 MOH     0.0372 ****
17166 O1    -17.117107   12.595848  -10.334932 O    2810 MOH    -0.6497 ****
17167 HO1   -17.578988   12.334569   -9.535901 H    2810 MOH     0.4215 ****
17168 HC1   -22.971439   25.385858  -13.796219 H    2811 MOH     0.0372 ****
17169 C1    -21.939714   25.102126  -14.001987 C    2811 MOH     0.1166 ****
17170 HC2   -21.668937   24.276240  -13.345085 H    2811 MOH     0.0372 ****
17171 HC3   -21.291350   25.952915  -13.791270 H    2811 MOH     0.0372 ****
17172 O1    -21.801728   24.782876  -15.363875 O    2811 MOH    -0.6497 ****
17173 HO1   -22.098486   25.575694  -15.816423 H    2811 MOH     0.4215 ****
17174 HC1   -17.477374   24.658360  -19.482772 H    2812 MOH     0.0372 ****
17175 C1    -17.462940   25.365854  -20.312208 C    2812 MOH     0.1166 ****
17176 HC2   -18.453673   25.796964  -20.453630 H    2812 MOH     0.0372 ****
17177 HC3   -17.124036   24.872690  -21.222962 H    2812 MOH     0.0372 ****
17178 O1    -16.585945   26.417502  -20.005324 O    2812 MOH    -0.6497 ****
17179 HO1   -16.389646   26.424442  -19.065579 H    2812 MOH     0.4215 ****
17180 HC1   -11.345914   20.823684   -6.153102 H    2813 MOH     0.0372 ****
17181 C1    -11.270859   21.865533   -6.462815 C    2813 MOH     0.1166 ****
17182 HC2   -10.232206   22.090070   -6.706060 H    2813 MOH     0.0372 ****
17183 HC3   -11.632857   22.466883   -5.627722 H    2813 MOH     0.0372 ****
17184 O1    -12.158823   22.023117   -7.539031 O    2813 MOH    -0.6497 ****
17185 HO1   -11.791629   21.502601   -8.256745 H    2813 MOH     0.4215 ****
17186 HC1   -21.621017   16.911032   -5.604387 H    2814 MOH     0.0372 ****
17187 C1    -20.628552   16.931853   -6.054814 C    2814 MOH     0.1166 ****
17188 HC2   -20.105473   17.843063   -5.764900 H    2814 MOH     0.0372 ****
17189 HC3   -20.688596   16.876331   -7.140930 H    2814 MOH     0.0372 ****
17190 O1    -19.893585   15.867141   -5.606509 O    2814 MOH    -0.6497 ****
17191 HO1   -20.340454   15.071057   -5.902079 H    2814 MOH     0.4215 ****
17192 HC1   -12.723472   29.296877  -22.131594 H    2815 MOH     0.0372 ****
17193 C1    -11.979845   28.775952  -22.734049 C    2815 MOH     0.1166 ****
17194 HC2   -11.064167   29.365463  -22.782132 H    2815 MOH     0.0372 ****
17195 HC3   -12.315863   28.654702  -23.764304 H    2815 MOH     0.0372 ****
17196 O1    -11.641517   27.547125  -22.149979 O    2815 MOH    -0.6497 ****
17197 HO1   -12.345307   27.275640  -21.556716 H    2815 MOH     0.4215 ****
17198 HC1   -12.007558   23.619776  -17.471760 H    2816 MOH     0.0372 ****
17199 C1    -12.046817   22.550166  -17.676821 C    2816 MOH     0.1166 ****
17200 HC2   -12.825086   22.121913  -17.045375 H    2816 MOH     0.0372 ****
17201 HC3   -11.078024   22.113748  -17.432869 H    2816 MOH     0.0372 ****
17202 O1    -12.335492   22.258268  -19.045073 O    2816 MOH    -0.6497 ****
17203 HO1   -11.905944   21.443813  -19.317309 H    2816 MOH     0.4215 ****
17204 HC1    -7.846017   22.299910  -19.718239 H    2817 MOH     0.0372 ****
17205 C1     -8.368519   23.229083  -19.490550 C    2817 MOH     0.1166 ****
17206 HC2    -9.400821   23.015977  -19.211950 H    2817 MOH     0.0372 ****
17207 HC3    -8.328104   23.875340  -20.366655 H    2817 MOH     0.0372 ****
17208 O1     -7.680895   23.792465  -18.424233 O    2817 MOH    -0.6497 ****
17209 HO1    -7.218437   23.077214  -17.981584 H    2817 MOH     0.4215 ****
17210 HC1   -14.445708   17.514015  -10.078252 H    2818 MOH     0.0372 ****
17211 C1    -14.194560   16.993498   -9.154063 C    2818 MOH     0.1166 ****
17212 HC2   -14.861400   16.139851   -9.033148 H    2818 MOH     0.0372 ****
17213 HC3   -14.317536   17.663434   -8.303414 H    2818 MOH     0.0372 ****
17214 O1    -12.854530   16.562796   -9.250937 O    2818 MOH    -0.6497 ****
17215 HO1   -12.664582   16.007170   -8.492211 H    2818 MOH     0.4215 ****
17216 HC1   -12.972887   24.444438  -20.099369 H    2819 MOH     0.0372 ****
17217 C1    -13.909927   24.700409  -20.592223 C    2819 MOH     0.1166 ****
17218 HC2   -14.748239   24.368504  -19.979161 H    2819 MOH     0.0372 ****
17219 HC3   -13.928402   24.201530  -21.560959 H    2819 MOH     0.0372 ****
17220 O1    -13.940526   26.083963  -20.809304 O    2819 MOH    -0.6497 ****
17221 HO1   -14.856781   26.325238  -20.961332 H    2819 MOH     0.4215 ****
17222 HC1   -22.919478   23.742251  -10.857484 H    2820 MOH     0.0372 ****
17223 C1    -23.929263   24.141518  -10.765560 C    2820 MOH     0.1166 ****
17224 HC2   -24.541832   23.400139  -10.252200 H    2820 MOH     0.0372 ****
17225 HC3   -24.330522   24.333394  -11.761166 H    2820 MOH     0.0372 ****
17226 O1    -23.861136   25.330337  -10.003299 O    2820 MOH    -0.6497 ****
17227 HO1   -23.526850   26.023542  -10.577469 H    2820 MOH     0.4215 ****
17228 HC1   -16.302466   19.734477  -21.807032 H    2821 MOH     0.0372 ****
17229 C1    -15.997048   18.754273  -22.174020 C    2821 MOH     0.1166 ****
17230 HC2   -15.047884   18.833882  -22.703643 H    2821 MOH     0.0372 ****
17231 HC3   -16.763769   18.361947  -22.840822 H    2821 MOH     0.0372 ****
17232 O1    -15.843473   17.833673  -21.099925 O    2821 MOH    -0.6497 ****
17233 HO1   -14.994190   17.399705  -21.208113 H    2821 MOH     0.4215 ****
17234 HC1   -10.461414   17.086171  -15.134065 H    2822 MOH     0.0372 ****
17235 C1     -9.590192   17.589541  -15.553380 C    2822 MOH     0.1166 ****
17236 HC2    -9.888105   18.538718  -15.996736 H    2822 MOH     0.0372 ****
17237 HC3    -9.151406   16.977985  -16.342511 H    2822 MOH     0.0372 ****
17238 O1     -8.621398   17.864700  -14.567673 O    2822 MOH    -0.6497 ****
17239 HO1    -8.191272   17.026566  -14.384532 H    2822 MOH     0.4215 ****
17240 HC1   -20.489410   26.415869   -6.172901 H    2823 MOH     0.0372 ****
17241 C1    -19.881461   27.286662   -6.421096 C    2823 MOH     0.1166 ****
17242 HC2   -18.831838   27.017219   -6.535647 H    2823 MOH     0.0372 ****
17243 HC3   -19.938041   28.008854   -5.605802 H    2823 MOH     0.0372 ****
17244 O1    -20.276368   27.848820   -7.630955 O    2823 MOH    -0.6497 ****
17245 HO1   -19.994621   27.250328   -8.326748 H    2823 MOH     0.4215 ****
17246 HC1   -21.429914   18.671807  -15.971280 H    2824 MOH     0.0372 ****
17247 C1    -20.573126   18.413794  -16.594948 C    2824 MOH     0.1166 ****
17248 HC2   -20.387219   19.207021  -17.318318 H    2824 MOH     0.0372 ****
17249 HC3   -20.819077   17.509932  -17.152148 H    2824 MOH     0.0372 ****
17250 O1    -19.409765   18.223142  -15.793796 O    2824 MOH    -0.6497 ****
17251 HO1   -18.713481   17.875315  -16.355239 H    2824 MOH     0.4215 ****
17252 HC1   -15.375242   18.331736  -16.787988 H    2825 MOH     0.0372 ****
17253 C1    -15.873495   17.556064  -17.367816 C    2825 MOH     0.1166 ****
17254 HC2   -15.146611   16.810603  -17.690256 H    2825 MOH     0.0372 ****
17255 HC3   -16.335952   18.030041  -18.234021 H    2825 MOH     0.0372 ****
17256 O1    -16.848640   16.925321  -16.570906 O    2825 MOH    -0.6497 ****
17257 HO1   -16.376944   16.556264  -15.821373 H    2825 MOH     0.4215 ****
17258 HC1   -12.034693   24.383609   -9.600955 H    2826 MOH     0.0372 ****
17259 C1    -12.657077   25.278081   -9.610147 C    2826 MOH     0.1166 ****
17260 HC2   -12.213094   26.065184   -9.000621 H    2826 MOH     0.0372 ****
17261 HC3   -13.628757   25.000064   -9.200732 H    2826 MOH     0.0372 ****
17262 O1    -12.836633   25.730828  -10.931730 O    2826 MOH    -0.6497 ****
17263 HO1   -11.979267   26.006396  -11.264777 H    2826 MOH     0.4215 ****
17264 HC1   -16.405812   24.563238  -11.760459 H    2827 MOH     0.0372 ****
17265 C1    -15.952015   25.442605  -11.303668 C    2827 MOH     0.1166 ****
17266 HC2   -15.114857   25.759406  -11.925922 H    2827 MOH     0.0372 ****
17267 HC3   -15.648328   25.193573  -10.286848 H    2827 MOH     0.0372 ****
17268 O1    -16.902333   26.440364  -11.339023 O    2827 MOH    -0.6497 ****
17269 HO1   -17.230268   26.495886  -12.239877 H    2827 MOH     0.4215 ****
17270 HC1    -9.042864   27.882297   -6.383619 H    2828 MOH     0.0372 ****
17271 C1     -9.295743   28.746967   -5.769850 C    2828 MOH     0.1166 ****
17272 HC2    -8.488030   28.930270   -5.062036 H    2828 MOH     0.0372 ****
17273 HC3   -10.213730   28.514265   -5.231035 H    2828 MOH     0.0372 ****
17274 O1     -9.488001   29.855361   -6.626157 O    2828 MOH    -0.6497 ****
17275 HO1   -10.173316   29.584284   -7.241339 H    2828 MOH     0.4215 ****
17276 HC1   -12.783516   20.622826   -9.917739 H    2829 MOH     0.0372 ****
17277 C1    -11.960792   19.932070  -10.103001 C    2829 MOH     0.1166 ****
17278 HC2   -11.685396   20.053319  -11.150226 H    2829 MOH     0.0372 ****
17279 HC3   -12.269097   18.892261   -9.996227 H    2829 MOH     0.0372 ****
17280 O1    -10.870755   20.242746   -9.218410 O    2829 MOH    -0.6497 ****
17281 HO1   -10.259918   19.502184   -9.205682 H    2829 MOH     0.4215 ****
17282 HC1   -17.036278   21.964329  -19.112955 H    2830 MOH     0.0372 ****
17283 C1    -16.109054   21.787558  -18.569190 C    2830 MOH     0.1166 ****
17284 HC2   -16.174872   20.862876  -17.995726 H    2830 MOH     0.0372 ****
17285 HC3   -15.885619   22.624059  -17.906631 H    2830 MOH     0.0372 ****
17286 O1    -15.105619   21.685496  -19.499743 O    2830 MOH    -0.6497 ****
17287 HO1   -14.295597   22.026383  -19.112955 H    2830 MOH     0.4215 ****
17288 HC1   -19.133214   22.108441  -24.385850 H    2831 MOH     0.0372 ****
17289 C1    -18.853200   21.200089  -23.851985 C    2831 MOH     0.1166 ****
17290 HC2   -18.044909   20.704475  -24.389386 H    2831 MOH     0.0372 ****
17291 HC3   -19.684007   20.494227  -23.828650 H    2831 MOH     0.0372 ****
17292 O1    -18.415568   21.461368  -22.532524 O    2831 MOH    -0.6497 ****
17293 HO1   -18.763133   20.756731  -21.980980 H    2831 MOH     0.4215 ****
17294 HC1    -7.949363   21.580576  -10.982641 H    2832 MOH     0.0372 ****
17295 C1     -8.780747   22.263984  -11.152347 C    2832 MOH     0.1166 ****
17296 HC2    -9.702775   21.803888  -10.795258 H    2832 MOH     0.0372 ****
17297 HC3    -8.851184   22.452186  -12.223614 H    2832 MOH     0.0372 ****
17298 O1     -8.452812   23.484646  -10.500395 O    2832 MOH    -0.6497 ****
17299 HO1    -7.839666   23.287462   -9.788338 H    2832 MOH     0.4215 ****
17300 HC1   -15.442792   23.810020   -2.499481 H    2833 MOH     0.0372 ****
17301 C1    -16.334221   24.436681   -2.531301 C    2833 MOH     0.1166 ****
17302 HC2   -17.222763   23.805938   -2.571606 H    2833 MOH     0.0372 ****
17303 HC3   -16.324983   25.054769   -3.429327 H    2833 MOH     0.0372 ****
17304 O1    -16.323828   25.284205   -1.409830 O    2833 MOH    -0.6497 ****
17305 HO1   -15.568077   25.864325   -1.526502 H    2833 MOH     0.4215 ****
17306 HC1    -8.189540   24.406879  -14.960117 H    2834 MOH     0.0372 ****
17307 C1     -9.199326   24.085996  -15.216090 C    2834 MOH     0.1166 ****
17308 HC2    -9.896765   24.516698  -14.496962 H    2834 MOH     0.0372 ****
17309 HC3    -9.280732   22.999647  -15.181441 H    2834 MOH     0.0372 ****
17310 O1     -9.554396   24.545275  -16.488175 O    2834 MOH    -0.6497 ****
17311 HO1    -8.955684   24.137843  -17.117500 H    2834 MOH     0.4215 ****
17312 HC1   -13.785796   25.071916   -3.912988 H    2835 MOH     0.0372 ****
17313 C1    -13.561207   26.137852   -3.862783 C    2835 MOH     0.1166 ****
17314 HC2   -13.920319   26.685721   -4.733939 H    2835 MOH     0.0372 ****
17315 HC3   -12.475211   26.184392   -3.934908 H    2835 MOH     0.0372 ****
17316 O1    -13.922051   26.735936   -2.596355 O    2835 MOH    -0.6497 ****
17317 HO1   -13.994220   27.684705   -2.722220 H    2835 MOH     0.4215 ****
17318 HC1   -14.699165   11.620951  -12.545347 H    2836 MOH     0.0372 ****
17319 C1    -14.117773   12.378251  -12.018553 C    2836 MOH     0.1166 ****
17320 HC2   -13.064109   12.134119  -12.155731 H    2836 MOH     0.0372 ****
17321 HC3   -14.347558   12.388866  -10.953650 H    2836 MOH     0.0372 ****
17322 O1    -14.245945   13.638514  -12.570803 O    2836 MOH    -0.6497 ****
17323 HO1   -13.447469   14.114940  -12.329680 H    2836 MOH     0.4215 ****
17324 HC1   -19.543711   22.978010   -7.463371 H    2837 MOH     0.0372 ****
17325 C1    -19.198455   22.134977   -8.060876 C    2837 MOH     0.1166 ****
17326 HC2   -18.458292   21.603030   -7.461957 H    2837 MOH     0.0372 ****
17327 HC3   -18.756782   22.520772   -8.979408 H    2837 MOH     0.0372 ****
17328 O1    -20.250965   21.217235   -8.394631 O    2837 MOH    -0.6497 ****
17329 HO1   -19.972105   20.704067   -9.156185 H    2837 MOH     0.4215 ****
17330 HC1   -14.478617   11.298435  -17.208009 H    2838 MOH     0.0372 ****
17331 C1    -14.511526   12.383559  -17.307004 C    2838 MOH     0.1166 ****
17332 HC2   -14.066389   12.852636  -16.429485 H    2838 MOH     0.0372 ****
17333 HC3   -15.549024   12.709341  -17.381958 H    2838 MOH     0.0372 ****
17334 O1    -13.825634   12.760780  -18.472316 O    2838 MOH    -0.6497 ****
17335 HO1   -13.724020   13.714040  -18.432011 H    2838 MOH     0.4215 ****
17336 HC1    -6.045261   20.115373  -16.025020 H    2839 MOH     0.0372 ****
17337 C1     -6.951124   20.439930  -16.536258 C    2839 MOH     0.1166 ****
17338 HC2    -7.836779   20.047195  -16.037041 H    2839 MOH     0.0372 ****
17339 HC3    -6.943618   20.091695  -17.569341 H    2839 MOH     0.0372 ****
17340 O1     -7.044077   21.832057  -16.522116 O    2839 MOH    -0.6497 ****
17341 HO1    -6.773877   22.117423  -15.646011 H    2839 MOH     0.4215 ****
17342 HC1   -13.510978   24.679181  -14.040171 H    2840 MOH     0.0372 ****
17343 C1    -12.847602   23.857377  -13.770763 C    2840 MOH     0.1166 ****
17344 HC2   -11.831466   24.243580  -13.692982 H    2840 MOH     0.0372 ****
17345 HC3   -12.861459   23.074765  -14.529489 H    2840 MOH     0.0372 ****
17346 O1    -13.225767   23.430349  -12.483829 O    2840 MOH    -0.6497 ****
17347 HO1   -13.172073   24.199489  -11.912487 H    2840 MOH     0.4215 ****
17348 HC1    -9.731065   30.878431   -9.936830 H    2841 MOH     0.0372 ****
17349 C1    -10.070547   30.132561  -10.655958 C    2841 MOH     0.1166 ****
17350 HC2   -10.576884   29.295244  -10.174418 H    2841 MOH     0.0372 ****
17351 HC3    -9.183737   29.735744  -11.150933 H    2841 MOH     0.0372 ****
17352 O1    -10.911747   30.753099  -11.610552 O    2841 MOH    -0.6497 ****
17353 HO1   -10.382317   31.438139  -12.026331 H    2841 MOH     0.4215 ****
17354 HC1   -19.024673   23.642230  -18.917794 H    2842 MOH     0.0372 ****
17355 C1    -19.655139   23.328695  -18.086236 C    2842 MOH     0.1166 ****
17356 HC2   -20.631438   23.015977  -18.456760 H    2842 MOH     0.0372 ****
17357 HC3   -19.825458   24.155806  -17.396100 H    2842 MOH     0.0372 ****
17358 O1    -19.052963   22.274598  -17.390443 O    2842 MOH    -0.6497 ****
17359 HO1   -19.703637   21.920239  -16.780917 H    2842 MOH     0.4215 ****
17360 HC1   -16.362511   28.374644  -15.773997 H    2843 MOH     0.0372 ****
17361 C1    -15.706063   28.650212  -14.948803 C    2843 MOH     0.1166 ****
17362 HC2   -16.252814   28.614286  -14.005523 H    2843 MOH     0.0372 ****
17363 HC3   -15.359653   29.672874  -15.099417 H    2843 MOH     0.0372 ****
17364 O1    -14.587159   27.778193  -14.883750 O    2843 MOH    -0.6497 ****
17365 HO1   -13.982095   28.104792  -14.213412 H    2843 MOH     0.4215 ****
17366 HC1   -27.024438   18.306833  -15.720964 H    2844 MOH     0.0372 ****
17367 C1    -26.380692   19.091078  -16.117651 C    2844 MOH     0.1166 ****
17368 HC2   -26.346629   19.892469  -15.380139 H    2844 MOH     0.0372 ****
17369 HC3   -26.779642   19.531170  -17.032647 H    2844 MOH     0.0372 ****
17370 O1    -25.068953   18.626491  -16.348168 O    2844 MOH    -0.6497 ****
17371 HO1   -24.626702   19.413594  -16.673437 H    2844 MOH     0.4215 ****
17372 HC1   -20.254429   25.447504  -11.542670 H    2845 MOH     0.0372 ****
17373 C1    -20.091616   25.223376  -10.488374 C    2845 MOH     0.1166 ****
17374 HC2   -19.524081   24.296652  -10.396450 H    2845 MOH     0.0372 ****
17375 HC3   -21.075421   25.105800  -10.034411 H    2845 MOH     0.0372 ****
17376 O1    -19.398796   26.299926   -9.896525 O    2845 MOH    -0.6497 ****
17377 HO1   -18.560483   26.390557  -10.354731 H    2845 MOH     0.4215 ****
17378 HC1   -22.319033   19.381343   -6.783134 H    2846 MOH     0.0372 ****
17379 C1    -22.712209   19.816127   -5.864603 C    2846 MOH     0.1166 ****
17380 HC2   -22.896384   20.880839   -6.006024 H    2846 MOH     0.0372 ****
17381 HC3   -22.013038   19.672015   -5.040823 H    2846 MOH     0.0372 ****
17382 O1    -23.876724   19.155173   -5.535798 O    2846 MOH    -0.6497 ****
17383 HO1   -24.301077   19.604654   -4.801114 H    2846 MOH     0.4215 ****
17384 HC1   -20.532134   25.342584  -20.878601 H    2847 MOH     0.0372 ****
17385 C1    -20.665502   24.319922  -21.231447 C    2847 MOH     0.1166 ****
17386 HC2   -21.664318   24.242355  -21.659954 H    2847 MOH     0.0372 ****
17387 HC3   -20.592179   23.603038  -20.414032 H    2847 MOH     0.0372 ****
17388 O1    -19.745206   24.042721  -22.243317 O    2847 MOH    -0.6497 ****
17389 HO1   -19.629158   23.094769  -22.335241 H    2847 MOH     0.4215 ****
17390 HC1   -18.345131   16.067999  -21.920876 H    2848 MOH     0.0372 ****
17391 C1    -19.081830   16.413786  -21.196092 C    2848 MOH     0.1166 ****
17392 HC2   -19.352608   15.605862  -20.515148 H    2848 MOH     0.0372 ****
17393 HC3   -19.990580   16.713440  -21.716522 H    2848 MOH     0.0372 ****
17394 O1    -18.641889   17.495235  -20.402011 O    2848 MOH    -0.6497 ****
17395 HO1   -17.694458   17.426650  -20.266246 H    2848 MOH     0.4215 ****
17396 HC1   -19.507915   13.817327  -16.158663 H    2849 MOH     0.0372 ****
17397 C1    -18.472726   14.121472  -16.314934 C    2849 MOH     0.1166 ****
17398 HC2   -17.883829   13.218835  -16.482518 H    2849 MOH     0.0372 ****
17399 HC3   -18.099758   14.678322  -15.456506 H    2849 MOH     0.0372 ****
17400 O1    -18.475035   14.853052  -17.491559 O    2849 MOH    -0.6497 ****
17401 HO1   -17.837641   15.562180  -17.381958 H    2849 MOH     0.4215 ****
17402 HC1    -6.445365   19.009428  -11.587925 H    2850 MOH     0.0372 ****
17403 C1     -6.061427   19.606287  -12.415240 C    2850 MOH     0.1166 ****
17404 HC2    -5.373803   18.989016  -12.993653 H    2850 MOH     0.0372 ****
17405 HC3    -5.560287   20.468100  -11.973298 H    2850 MOH     0.0372 ****
17406 O1     -7.126638   20.045971  -13.202249 O    2850 MOH    -0.6497 ****
17407 HO1    -7.656069   19.289895  -13.463879 H    2850 MOH     0.4215 ****
17408 HC1   -15.979150   28.005588   -6.987488 H    2851 MOH     0.0372 ****
17409 C1    -15.915642   27.082538   -7.563780 C    2851 MOH     0.1166 ****
17410 HC2   -14.883917   26.878414   -7.849451 H    2851 MOH     0.0372 ****
17411 HC3   -16.532829   27.194398   -8.454735 H    2851 MOH     0.0372 ****
17412 O1    -16.433525   26.029258   -6.798691 O    2851 MOH    -0.6497 ****
17413 HO1   -16.183532   25.204596   -7.222955 H    2851 MOH     0.4215 ****
17414 HC1    -6.553330   24.466075  -12.852232 H    2852 MOH     0.0372 ****
17415 C1     -5.913048   23.590791  -12.743337 C    2852 MOH     0.1166 ****
17416 HC2    -6.063159   23.189891  -11.740660 H    2852 MOH     0.0372 ****
17417 HC3    -4.874395   23.903509  -12.849403 H    2852 MOH     0.0372 ****
17418 O1     -6.292367   22.648962  -13.746722 O    2852 MOH    -0.6497 ****
17419 HO1    -6.363381   21.775719  -13.354277 H    2852 MOH     0.4215 ****
17420 HC1    -8.417594   26.679597   -8.431400 H    2853 MOH     0.0372 ****
17421 C1     -7.559074   27.041305   -8.997086 C    2853 MOH     0.1166 ****
17422 HC2    -7.907216   27.560597   -9.889454 H    2853 MOH     0.0372 ****
17423 HC3    -6.929762   26.200722   -9.290535 H    2853 MOH     0.0372 ****
17424 O1     -6.809673   27.930878   -8.201590 O    2853 MOH    -0.6497 ****
17425 HO1    -6.642242   27.512424   -7.353769 H    2853 MOH     0.4215 ****
17426 HC1    -7.618541   28.000689  -18.363422 H    2854 MOH     0.0372 ****
17427 C1     -8.065410   28.414652  -19.267104 C    2854 MOH     0.1166 ****
17428 HC2    -9.093093   28.733494  -19.095277 H    2854 MOH     0.0372 ****
17429 HC3    -8.034810   27.642247  -20.036437 H    2854 MOH     0.0372 ****
17430 O1     -7.254810   29.478956  -19.655306 O    2854 MOH    -0.6497 ****
17431 HO1    -7.072945   30.025192  -18.887388 H    2854 MOH     0.4215 ****
17432 HC1   -14.392591   25.748383  -23.769253 H    2855 MOH     0.0372 ****
17433 C1    -15.316929   26.263592  -24.030883 C    2855 MOH     0.1166 ****
17434 HC2   -16.029957   26.216644  -23.207103 H    2855 MOH     0.0372 ****
17435 HC3   -15.752829   25.817377  -24.923959 H    2855 MOH     0.0372 ****
17436 O1    -15.079061   27.612853  -24.310190 O    2855 MOH    -0.6497 ****
17437 HO1   -14.574457   27.643063  -25.126191 H    2855 MOH     0.4215 ****
17438 HC1   -22.786687   19.887162   -1.565393 H    2856 MOH     0.0372 ****
17439 C1    -21.892372   19.444621   -1.125573 C    2856 MOH     0.1166 ****
17440 HC2   -21.826554   19.717739   -0.072691 H    2856 MOH     0.0372 ****
17441 HC3   -21.002098   19.814494   -1.634690 H    2856 MOH     0.0372 ****
17442 O1    -21.943756   18.032082   -1.241538 O    2856 MOH    -0.6497 ****
17443 HO1   -21.038471   17.723855   -1.153150 H    2856 MOH     0.4215 ****
17444 HC1   -24.133068   15.528703  -23.229731 H    2857 MOH     0.0372 ****
17445 C1    -23.619226   15.837747  -22.319684 C    2857 MOH     0.1166 ****
17446 HC2   -22.536117   15.811619  -22.435650 H    2857 MOH     0.0372 ****
17447 HC3   -23.922335   15.198431  -21.489541 H    2857 MOH     0.0372 ****
17448 O1    -24.058590   17.095152  -22.036842 O    2857 MOH    -0.6497 ****
17449 HO1   -24.390566   17.457268  -22.862035 H    2857 MOH     0.4215 ****
17450 HC1   -19.055850   23.629983   -3.763081 H    2858 MOH     0.0372 ****
17451 C1    -19.466346   22.673457   -3.439933 C    2858 MOH     0.1166 ****
17452 HC2   -18.687500   21.910849   -3.418720 H    2858 MOH     0.0372 ****
17453 HC3   -20.251542   22.394623   -4.142090 H    2858 MOH     0.0372 ****
17454 O1    -20.062171   22.817977   -2.184112 O    2858 MOH    -0.6497 ****
17455 HO1   -19.441520   23.267050   -1.605698 H    2858 MOH     0.4215 ****
17456 HC1   -22.281506   18.737535  -19.496207 H    2859 MOH     0.0372 ****
17457 C1    -23.163697   19.320922  -19.235285 C    2859 MOH     0.1166 ****
17458 HC2   -22.859433   20.319497  -18.924158 H    2859 MOH     0.0372 ****
17459 HC3   -23.698900   18.831024  -18.422112 H    2859 MOH     0.0372 ****
17460 O1    -23.984689   19.376035  -20.402718 O    2859 MOH    -0.6497 ****
17461 HO1   -24.075333   18.487279  -20.755564 H    2859 MOH     0.4215 ****
17462 HC1   -14.744775    9.745050  -14.045121 H    2860 MOH     0.0372 ****
17463 C1    -13.907040    9.973261  -14.704851 C    2860 MOH     0.1166 ****
17464 HC2   -13.549660   10.974694  -14.469385 H    2860 MOH     0.0372 ****
17465 HC3   -14.257492    9.928353  -15.735813 H    2860 MOH     0.0372 ****
17466 O1    -12.826240    9.031432  -14.500498 O    2860 MOH    -0.6497 ****
17467 HO1   -11.993124    9.419676  -14.778390 H    2860 MOH     0.4215 ****
17468 HC1   -20.551187   20.600372  -14.429787 H    2861 MOH     0.0372 ****
17469 C1    -20.862956   21.643855  -14.465142 C    2861 MOH     0.1166 ****
17470 HC2   -20.056975   22.301134  -14.137045 H    2861 MOH     0.0372 ****
17471 HC3   -21.705887   21.767146  -13.786320 H    2861 MOH     0.0372 ****
17472 O1    -21.316176   21.990049  -15.759148 O    2861 MOH    -0.6497 ****
17473 HO1   -21.527486   22.925754  -15.729449 H    2861 MOH     0.4215 ****
17474 HC1   -13.855078   28.613878   -6.932334 H    2862 MOH     0.0372 ****
17475 C1    -12.929586   28.913532   -6.438773 C    2862 MOH     0.1166 ****
17476 HC2   -12.485604   28.059477   -5.926828 H    2862 MOH     0.0372 ****
17477 HC3   -13.175537   29.665525   -5.689240 H    2862 MOH     0.0372 ****
17478 O1    -12.047395   29.412820   -7.464785 O    2862 MOH    -0.6497 ****
17479 HO1   -12.237920   30.350974   -7.539739 H    2862 MOH     0.4215 ****
17480 HC1   -24.825888   19.771220  -13.613079 H    2863 MOH     0.0372 ****
17481 C1    -24.054548   19.478097  -12.900315 C    2863 MOH     0.1166 ****
17482 HC2   -23.156769   19.221717  -13.463172 H    2863 MOH     0.0372 ****
17483 HC3   -24.384793   18.589749  -12.361500 H    2863 MOH     0.0372 ****
17484 O1    -23.794163   20.555465  -11.991683 O    2863 MOH    -0.6497 ****
17485 HO1   -24.460426   20.530562  -11.300840 H    2863 MOH     0.4215 ****
17486 HC1   -24.955215   20.381959   -7.729950 H    2864 MOH     0.0372 ****
17487 C1    -24.471973   20.231316   -8.695151 C    2864 MOH     0.1166 ****
17488 HC2   -24.016443   19.241722   -8.714950 H    2864 MOH     0.0372 ****
17489 HC3   -23.711602   21.000455   -8.833744 H    2864 MOH     0.0372 ****
17490 O1    -25.503120   20.280714   -9.681565 O    2864 MOH    -0.6497 ****
17491 HO1   -26.015807   21.081697   -9.551457 H    2864 MOH     0.4215 ****
17492 HC1   -29.255320   21.809603  -14.063506 H    2865 MOH     0.0372 ****
17493 C1    -28.667577   22.725304  -14.001987 C    2865 MOH     0.1166 ****
17494 HC2   -28.201655   22.935960  -14.965067 H    2865 MOH     0.0372 ****
17495 HC3   -27.878916   22.576702  -13.265182 H    2865 MOH     0.0372 ****
17496 O1    -29.449309   23.850028  -13.626514 O    2865 MOH    -0.6497 ****
17497 HO1   -29.849413   23.685913  -12.769500 H    2865 MOH     0.4215 ****
17498 HC1   -15.520157   24.417085  -16.513631 H    2866 MOH     0.0372 ****
17499 C1    -14.738424   25.090287  -16.865063 C    2866 MOH     0.1166 ****
17500 HC2   -14.178972   24.655502  -17.693085 H    2866 MOH     0.0372 ****
17501 HC3   -14.053110   25.295227  -16.043405 H    2866 MOH     0.0372 ****
17502 O1    -15.312310   26.289720  -17.310540 O    2866 MOH    -0.6497 ****
17503 HO1   -15.117166   26.933119  -16.624646 H    2866 MOH     0.4215 ****
17504 HC1    -4.391268   31.751511  -21.057499 H    2867 MOH     0.0372 ****
17505 C1     -4.578330   30.765591  -20.632528 C    2867 MOH     0.1166 ****
17506 HC2    -4.970351   30.860305  -19.619951 H    2867 MOH     0.0372 ****
17507 HC3    -3.621083   30.249157  -20.563938 H    2867 MOH     0.0372 ****
17508 O1     -5.419529   29.961750  -21.481763 O    2867 MOH    -0.6497 ****
17509 HO1    -6.135443   29.615556  -20.944362 H    2867 MOH     0.4215 ****
17510 HC1    -1.760860   32.223446  -14.420595 H    2868 MOH     0.0372 ****
17511 C1     -2.609565   32.658230  -13.892386 C    2868 MOH     0.1166 ****
17512 HC2    -2.745820   33.685383  -14.230383 H    2868 MOH     0.0372 ****
17513 HC3    -2.445021   32.645983  -12.814755 H    2868 MOH     0.0372 ****
17514 O1     -3.775236   31.960126  -14.226140 O    2868 MOH    -0.6497 ****
17515 HO1    -3.748100   31.159551  -13.696517 H    2868 MOH     0.4215 ****
17516 HC1     0.782368   31.646183  -17.973099 H    2869 MOH     0.0372 ****
17517 C1      0.102249   31.077493  -17.338824 C    2869 MOH     0.1166 ****
17518 HC2     0.456742   31.114643  -16.308570 H    2869 MOH     0.0372 ****
17519 HC3     0.047401   30.040950  -17.670457 H    2869 MOH     0.0372 ****
17520 O1     -1.130394   31.700480  -17.420849 O    2869 MOH    -0.6497 ****
17521 HO1    -1.028203   32.593319  -17.084973 H    2869 MOH     0.4215 ****
17522 HC1     1.112034   32.020546  -12.744044 H    2870 MOH     0.0372 ****
17523 C1      0.945758   32.107503  -11.669949 C    2870 MOH     0.1166 ****
17524 HC2     1.017926   33.163642  -11.410441 H    2870 MOH     0.0372 ****
17525 HC3     1.732686   31.553510  -11.157297 H    2870 MOH     0.0372 ****
17526 O1     -0.379839   31.588620  -11.435897 O    2870 MOH    -0.6497 ****
17527 HO1    -0.691030   31.937264  -10.597268 H    2870 MOH     0.4215 ****
17528 HC1    -7.188530   30.134847  -10.665858 H    2871 MOH     0.0372 ****
17529 C1     -6.112349   30.143012  -10.835563 C    2871 MOH     0.1166 ****
17530 HC2    -5.692038   31.003192  -10.315840 H    2871 MOH     0.0372 ****
17531 HC3    -5.908545   30.203433  -11.904709 H    2871 MOH     0.0372 ****
17532 O1     -5.518833   28.998284  -10.334932 O    2871 MOH    -0.6497 ****
17533 HO1    -5.980714   28.737005   -9.535901 H    2871 MOH     0.4215 ****
17534 HC1    -2.847434   33.916451  -10.078252 H    2872 MOH     0.0372 ****
17535 C1     -2.596286   33.395935   -9.154063 C    2872 MOH     0.1166 ****
17536 HC2    -3.263126   32.542288   -9.033148 H    2872 MOH     0.0372 ****
17537 HC3    -2.719262   34.065870   -8.303414 H    2872 MOH     0.0372 ****
17538 O1     -1.256256   32.965233   -9.250937 O    2872 MOH    -0.6497 ****
17539 HO1    -1.066308   32.409607   -8.492211 H    2872 MOH     0.4215 ****
17540 HC1     1.136861   33.488607  -15.134065 H    2873 MOH     0.0372 ****
17541 C1      2.008082   33.991977  -15.553380 C    2873 MOH     0.1166 ****
17542 HC2     1.710169   34.941155  -15.996736 H    2873 MOH     0.0372 ****
17543 HC3     2.446868   33.380421  -16.342511 H    2873 MOH     0.0372 ****
17544 O1      2.976876   34.267137  -14.567673 O    2873 MOH    -0.6497 ****
17545 HO1     3.407002   33.429003  -14.384532 H    2873 MOH     0.4215 ****
17546 HC1    -3.100890   28.023387  -12.545347 H    2874 MOH     0.0372 ****
17547 C1     -2.519499   28.780688  -12.018553 C    2874 MOH     0.1166 ****
17548 HC2    -1.465834   28.536555  -12.155731 H    2874 MOH     0.0372 ****
17549 HC3    -2.749284   28.791302  -10.953650 H    2874 MOH     0.0372 ****
17550 O1     -2.647670   30.040950  -12.570803 O    2874 MOH    -0.6497 ****
17551 HO1    -1.849195   30.517376  -12.329680 H    2874 MOH     0.4215 ****
17552 HC1    -2.880343   27.700871  -17.208009 H    2875 MOH     0.0372 ****
17553 C1     -2.913252   28.785995  -17.307004 C    2875 MOH     0.1166 ****
17554 HC2    -2.468115   29.255072  -16.429485 H    2875 MOH     0.0372 ****
17555 HC3    -3.950750   29.111777  -17.381958 H    2875 MOH     0.0372 ****
17556 O1     -2.227359   29.163217  -18.472316 O    2875 MOH    -0.6497 ****
17557 HO1    -2.125746   30.116476  -18.432011 H    2875 MOH     0.4215 ****
17558 HC1    -7.909641   30.219763  -16.158663 H    2876 MOH     0.0372 ****
17559 C1     -6.874452   30.523908  -16.314934 C    2876 MOH     0.1166 ****
17560 HC2    -6.285554   29.621271  -16.482518 H    2876 MOH     0.0372 ****
17561 HC3    -6.501483   31.080759  -15.456506 H    2876 MOH     0.0372 ****
17562 O1     -6.876761   31.255489  -17.491559 O    2876 MOH    -0.6497 ****
17563 HO1    -6.239366   31.964616  -17.381958 H    2876 MOH     0.4215 ****
17564 HC1     5.152909   35.411865  -11.587925 H    2877 MOH     0.0372 ****
17565 C1      5.536847   36.008724  -12.415240 C    2877 MOH     0.1166 ****
17566 HC2     6.224471   35.391452  -12.993653 H    2877 MOH     0.0372 ****
17567 HC3     6.037987   36.870536  -11.973298 H    2877 MOH     0.0372 ****
17568 O1      4.471636   36.448407  -13.202249 O    2877 MOH    -0.6497 ****
17569 HO1     3.942206   35.692331  -13.463879 H    2877 MOH     0.4215 ****
17570 HC1    -3.146501   26.147486  -14.045121 H    2878 MOH     0.0372 ****
17571 C1     -2.308766   26.375697  -14.704851 C    2878 MOH     0.1166 ****
17572 HC2    -1.951386   27.377130  -14.469385 H    2878 MOH     0.0372 ****
17573 HC3    -2.659217   26.330790  -15.735813 H    2878 MOH     0.0372 ****
17574 O1     -1.227966   25.433868  -14.500498 O    2878 MOH    -0.6497 ****
17575 HO1    -0.394850   25.822113  -14.778390 H    2878 MOH     0.4215 ****
17576 HC1   -31.312880   -2.593030  -22.863308 H    2879 MOH     0.0372 ****
17577 C1    -31.654672   -3.262557  -23.652439 C    2879 MOH     0.1166 ****
17578 HC2   -32.152925   -4.138658  -23.236660 H    2879 MOH     0.0372 ****
17579 HC3   -30.782295   -3.580583  -24.223074 H    2879 MOH     0.0372 ****
17580 O1    -32.435827   -2.532609  -24.574507 O    2879 MOH    -0.6497 ****
17581 HO1   -32.408691   -3.019649  -25.401114 H    2879 MOH     0.4215 ****
17582 HC1   -23.218430   -7.990889  -17.767897 H    2880 MOH     0.0372 ****
17583 C1    -23.929725   -8.816775  -17.778503 C    2880 MOH     0.1166 ****
17584 HC2   -23.567726   -9.547948  -18.501873 H    2880 MOH     0.0372 ****
17585 HC3   -24.918726   -8.444453  -18.048618 H    2880 MOH     0.0372 ****
17586 O1    -23.993234   -9.390364  -16.493690 O    2880 MOH    -0.6497 ****
17587 HO1   -24.269207   -8.706548  -15.879214 H    2880 MOH     0.4215 ****
17588 HC1   -28.052583   -8.336267  -20.886237 H    2881 MOH     0.0372 ****
17589 C1    -28.095307   -7.462207  -21.536069 C    2881 MOH     0.1166 ****
17590 HC2   -27.294522   -6.762062  -21.297774 H    2881 MOH     0.0372 ****
17591 HC3   -29.034656   -6.946182  -21.340907 H    2881 MOH     0.0372 ****
17592 O1    -28.094730   -7.816567  -22.927655 O    2881 MOH    -0.6497 ****
17593 HO1   -27.985611   -7.024157  -23.458692 H    2881 MOH     0.4215 ****
17594 HC1   -20.641138  -13.123795  -20.588545 H    2882 MOH     0.0372 ****
17595 C1    -20.894017  -12.259125  -19.974777 C    2882 MOH     0.1166 ****
17596 HC2   -20.086304  -12.075821  -19.266963 H    2882 MOH     0.0372 ****
17597 HC3   -21.812004  -12.491826  -19.435961 H    2882 MOH     0.0372 ****
17598 O1    -21.086275  -11.150731  -20.831083 O    2882 MOH    -0.6497 ****
17599 HO1   -21.771590  -11.421808  -21.446266 H    2882 MOH     0.4215 ****
17600 HC1   -27.041066  -17.196071  -16.704408 H    2883 MOH     0.0372 ****
17601 C1    -27.932495  -16.569410  -16.736228 C    2883 MOH     0.1166 ****
17602 HC2   -28.821037  -17.200154  -16.776533 H    2883 MOH     0.0372 ****
17603 HC3   -27.923257  -15.951322  -17.634253 H    2883 MOH     0.0372 ****
17604 O1    -27.922102  -15.721887  -15.614756 O    2883 MOH    -0.6497 ****
17605 HO1   -27.166351  -15.141766  -15.731429 H    2883 MOH     0.4215 ****
17606 HC1   -25.384070  -15.934176  -18.117914 H    2884 MOH     0.0372 ****
17607 C1    -25.159481  -14.868240  -18.067710 C    2884 MOH     0.1166 ****
17608 HC2   -25.518593  -14.320370  -18.938865 H    2884 MOH     0.0372 ****
17609 HC3   -24.073485  -14.821699  -18.139835 H    2884 MOH     0.0372 ****
17610 O1    -25.520325  -14.270156  -16.801282 O    2884 MOH    -0.6497 ****
17611 HO1   -25.592494  -13.321387  -16.927147 H    2884 MOH     0.4215 ****
17612 HC1   -21.329339  -10.127660  -24.141757 H    2885 MOH     0.0372 ****
17613 C1    -21.668821  -10.873530  -24.860885 C    2885 MOH     0.1166 ****
17614 HC2   -22.175158  -11.710847  -24.379345 H    2885 MOH     0.0372 ****
17615 HC3   -20.782011  -11.270347  -25.355859 H    2885 MOH     0.0372 ****
17616 O1    -22.510021  -10.252993  -25.815479 O    2885 MOH    -0.6497 ****
17617 HO1   -21.980591   -9.567952  -26.231258 H    2885 MOH     0.4215 ****
17618 HC1   -24.184337   -7.916588  -22.211356 H    2886 MOH     0.0372 ****
17619 C1    -24.496106   -8.335450  -21.253933 C    2886 MOH     0.1166 ****
17620 HC2   -25.023226   -7.589173  -20.661377 H    2886 MOH     0.0372 ****
17621 HC3   -23.603522   -8.668989  -20.725724 H    2886 MOH     0.0372 ****
17622 O1    -25.310747   -9.449560  -21.480914 O    2886 MOH    -0.6497 ****
17623 HO1   -25.996639   -9.208285  -22.106704 H    2886 MOH     0.4215 ****
17624 HC1   -20.015868  -14.326494  -22.636327 H    2887 MOH     0.0372 ****
17625 C1    -19.157348  -13.964786  -23.202012 C    2887 MOH     0.1166 ****
17626 HC2   -19.505490  -13.445494  -24.094381 H    2887 MOH     0.0372 ****
17627 HC3   -18.528036  -14.805369  -23.495461 H    2887 MOH     0.0372 ****
17628 O1    -18.407947  -13.075213  -22.406517 O    2887 MOH    -0.6497 ****
17629 HO1   -18.240516  -13.493668  -21.558696 H    2887 MOH     0.4215 ****
17630 HC1   -27.434241  -10.178283  -17.335147 H    2888 MOH     0.0372 ****
17631 C1    -26.996610  -11.081737  -17.760118 C    2888 MOH     0.1166 ****
17632 HC2   -26.752968  -10.886594  -18.803808 H    2888 MOH     0.0372 ****
17633 HC3   -27.702132  -11.908031  -17.666780 H    2888 MOH     0.0372 ****
17634 O1    -25.860384  -11.379350  -17.012706 O    2888 MOH    -0.6497 ****
17635 HO1   -25.232805  -10.653484  -17.060790 H    2888 MOH     0.4215 ****
17636 HC1   -25.453352  -12.392214  -21.137260 H    2889 MOH     0.0372 ****
17637 C1    -24.527860  -12.092559  -20.643700 C    2889 MOH     0.1166 ****
17638 HC2   -24.083878  -12.946615  -20.131754 H    2889 MOH     0.0372 ****
17639 HC3   -24.773811  -11.340566  -19.894167 H    2889 MOH     0.0372 ****
17640 O1    -23.645669  -11.593272  -21.669712 O    2889 MOH    -0.6497 ****
17641 HO1   -23.836194  -10.655117  -21.744665 H    2889 MOH     0.4215 ****
17642 HC1   -22.218574    6.151893  -30.447028 H    2890 MOH     0.0372 ****
17643 C1    -23.254918    6.290698  -30.140144 C    2890 MOH     0.1166 ****
17644 HC2   -23.818412    6.654855  -30.998572 H    2890 MOH     0.0372 ****
17645 HC3   -23.324777    7.040650  -29.351720 H    2890 MOH     0.0372 ****
17646 O1    -23.780307    5.047990  -29.722951 O    2890 MOH    -0.6497 ****
17647 HO1   -24.542986    5.200267  -29.160801 H    2890 MOH     0.4215 ****
17648 HC1   -15.610801   -3.150044  -21.849317 H    2891 MOH     0.0372 ****
17649 C1    -15.549601   -2.370290  -21.091298 C    2891 MOH     0.1166 ****
17650 HC2   -15.189335   -2.816097  -20.163574 H    2891 MOH     0.0372 ****
17651 HC3   -16.542644   -1.944895  -20.945634 H    2891 MOH     0.0372 ****
17652 O1    -14.678380   -1.347628  -21.519098 O    2891 MOH    -0.6497 ****
17653 HO1   -13.791570   -1.707703  -21.585566 H    2891 MOH     0.4215 ****
17654 HC1    -9.352324    1.599108  -27.629915 H    2892 MOH     0.0372 ****
17655 C1     -8.918734    1.792210  -26.649158 C    2892 MOH     0.1166 ****
17656 HC2    -8.632945    2.843041  -26.598246 H    2892 MOH     0.0372 ****
17657 HC3    -8.030769    1.172897  -26.522585 H    2892 MOH     0.0372 ****
17658 O1     -9.873094    1.477450  -25.641530 O    2892 MOH    -0.6497 ****
17659 HO1    -9.672176    0.585836  -25.348788 H    2892 MOH     0.4215 ****
17660 HC1   -13.359134   -8.782646  -28.625521 H    2893 MOH     0.0372 ****
17661 C1    -14.207839   -8.347861  -28.097312 C    2893 MOH     0.1166 ****
17662 HC2   -14.344094   -7.320709  -28.435309 H    2893 MOH     0.0372 ****
17663 HC3   -14.043294   -8.360109  -27.019682 H    2893 MOH     0.0372 ****
17664 O1    -15.373509   -9.045966  -28.431067 O    2893 MOH    -0.6497 ****
17665 HO1   -15.346374   -9.846541  -27.901444 H    2893 MOH     0.4215 ****
17666 HC1    -5.282581   -0.012248  -32.245201 H    2894 MOH     0.0372 ****
17667 C1     -5.477149    0.729131  -31.470212 C    2894 MOH     0.1166 ****
17668 HC2    -6.541205    0.771181  -31.237573 H    2894 MOH     0.0372 ****
17669 HC3    -5.175772    1.717500  -31.817401 H    2894 MOH     0.0372 ****
17670 O1     -4.807422    0.398858  -30.258938 O    2894 MOH    -0.6497 ****
17671 HO1    -5.025083   -0.495614  -29.986702 H    2894 MOH     0.4215 ****
17672 HC1   -21.168952    4.700571  -25.778002 H    2895 MOH     0.0372 ****
17673 C1    -20.565043    5.252114  -25.057460 C    2895 MOH     0.1166 ****
17674 HC2   -19.753289    4.616880  -24.703907 H    2895 MOH     0.0372 ****
17675 HC3   -21.213408    5.537888  -24.228731 H    2895 MOH     0.0372 ****
17676 O1    -20.060439    6.376022  -25.712948 O    2895 MOH    -0.6497 ****
17677 HO1   -19.247530    6.637709  -25.273835 H    2895 MOH     0.4215 ****
17678 HC1   -23.107116   -0.620946  -21.393233 H    2896 MOH     0.0372 ****
17679 C1    -24.127294   -0.913660  -21.145039 C    2896 MOH     0.1166 ****
17680 HC2   -24.288375   -0.856097  -20.069529 H    2896 MOH     0.0372 ****
17681 HC3   -24.335718   -1.935914  -21.461822 H    2896 MOH     0.0372 ****
17682 O1    -25.013527   -0.021229  -21.746079 O    2896 MOH    -0.6497 ****
17683 HO1   -24.562039    0.355176  -22.505512 H    2896 MOH     0.4215 ****
17684 HC1   -10.399637    4.351927  -30.716436 H    2897 MOH     0.0372 ****
17685 C1    -10.351139    3.264353  -30.767348 C    2897 MOH     0.1166 ****
17686 HC2   -10.729304    2.909585  -31.725477 H    2897 MOH     0.0372 ****
17687 HC3   -10.957935    2.817729  -29.979631 H    2897 MOH     0.0372 ****
17688 O1     -9.014574    2.829977  -30.693808 O    2897 MOH    -0.6497 ****
17689 HO1    -9.046905    1.870593  -30.672595 H    2897 MOH     0.4215 ****
17690 HC1   -28.508228    2.165757  -25.188982 H    2898 MOH     0.0372 ****
17691 C1    -27.467843    2.193110  -25.514959 C    2898 MOH     0.1166 ****
17692 HC2   -26.883564    1.553385  -24.852399 H    2898 MOH     0.0372 ****
17693 HC3   -27.126629    3.226794  -25.461218 H    2898 MOH     0.0372 ****
17694 O1    -27.400870    1.710968  -26.837955 O    2898 MOH    -0.6497 ****
17695 HO1   -27.995541    0.958159  -26.881796 H    2898 MOH     0.4215 ****
17696 HC1   -31.285283    1.083491  -26.489352 H    2899 MOH     0.0372 ****
17697 C1    -31.720028    0.198000  -26.026197 C    2899 MOH     0.1166 ****
17698 HC2   -32.132256   -0.476834  -26.776437 H    2899 MOH     0.0372 ****
17699 HC3   -32.542174    0.484182  -25.369295 H    2899 MOH     0.0372 ****
17700 O1    -30.814742   -0.504595  -25.230702 O    2899 MOH    -0.6497 ****
17701 HO1   -31.341286   -1.222296  -24.870077 H    2899 MOH     0.4215 ****
17702 HC1    -5.603588    2.017563  -28.463594 H    2900 MOH     0.0372 ****
17703 C1     -5.521027    2.957350  -27.917707 C    2900 MOH     0.1166 ****
17704 HC2    -6.347793    3.612997  -28.190650 H    2900 MOH     0.0372 ****
17705 HC3    -4.563780    3.419487  -28.162366 H    2900 MOH     0.0372 ****
17706 O1     -5.562019    2.599317  -26.576326 O    2900 MOH    -0.6497 ****
17707 HO1    -5.338007    3.342329  -26.012054 H    2900 MOH     0.4215 ****
17708 HC1   -17.696190    6.641791  -28.720274 H    2901 MOH     0.0372 ****
17709 C1    -18.361874    7.500746  -28.635421 C    2901 MOH     0.1166 ****
17710 HC2   -19.403992    7.180679  -28.642492 H    2901 MOH     0.0372 ****
17711 HC3   -18.226775    8.125366  -29.517890 H    2901 MOH     0.0372 ****
17712 O1    -18.136131    8.297646  -27.431925 O    2901 MOH    -0.6497 ****
17713 HO1   -18.208877    7.730589  -26.661886 H    2901 MOH     0.4215 ****
17714 HC1   -17.621712   -4.012264  -19.770423 H    2902 MOH     0.0372 ****
17715 C1    -17.322067   -5.059421  -19.785272 C    2902 MOH     0.1166 ****
17716 HC2   -16.688136   -5.248032  -20.652185 H    2902 MOH     0.0372 ****
17717 HC3   -18.189824   -5.713435  -19.864468 H    2902 MOH     0.0372 ****
17718 O1    -16.617122   -5.370506  -18.591676 O    2902 MOH    -0.6497 ****
17719 HO1   -16.182955   -6.218846  -18.710470 H    2902 MOH     0.4215 ****
17720 HC1   -20.755569   10.895738  -25.986599 H    2903 MOH     0.0372 ****
17721 C1    -21.209943   11.193760  -26.931293 C    2903 MOH     0.1166 ****
17722 HC2   -22.290743   11.059038  -26.883210 H    2903 MOH     0.0372 ****
17723 HC3   -20.787323   10.569140  -27.719010 H    2903 MOH     0.0372 ****
17724 O1    -20.928196   12.551185  -27.190802 O    2903 MOH    -0.6497 ****
17725 HO1   -21.197819   12.745511  -28.091656 H    2903 MOH     0.4215 ****
17726 HC1   -19.714606   13.809407  -22.863308 H    2904 MOH     0.0372 ****
17727 C1    -20.056398   13.139879  -23.652439 C    2904 MOH     0.1166 ****
17728 HC2   -20.554651   12.263778  -23.236660 H    2904 MOH     0.0372 ****
17729 HC3   -19.184021   12.821854  -24.223074 H    2904 MOH     0.0372 ****
17730 O1    -20.837552   13.869827  -24.574507 O    2904 MOH    -0.6497 ****
17731 HO1   -20.810417   13.382787  -25.401114 H    2904 MOH     0.4215 ****
17732 HC1   -16.947944   -2.896522  -27.194337 H    2905 MOH     0.0372 ****
17733 C1    -17.088240   -3.050840  -28.263482 C    2905 MOH     0.1166 ****
17734 HC2   -17.284539   -2.096355  -28.752800 H    2905 MOH     0.0372 ****
17735 HC3   -17.922511   -3.729757  -28.439552 H    2905 MOH     0.0372 ****
17736 O1    -15.912755   -3.605241  -28.815026 O    2905 MOH    -0.6497 ****
17737 HO1   -15.266122   -3.706078  -28.112869 H    2905 MOH     0.4215 ****
17738 HC1   -14.184745    5.139846  -25.903867 H    2906 MOH     0.0372 ****
17739 C1    -13.702080    4.173930  -26.050945 C    2906 MOH     0.1166 ****
17740 HC2   -14.475152    3.419896  -26.198731 H    2906 MOH     0.0372 ****
17741 HC3   -13.137432    3.931431  -25.151506 H    2906 MOH     0.0372 ****
17742 O1    -12.793909    4.201691  -27.173831 O    2906 MOH    -0.6497 ****
17743 HO1   -12.082613    4.805899  -26.944728 H    2906 MOH     0.4215 ****
17744 HC1   -10.486239   -8.985545  -26.948971 H    2907 MOH     0.0372 ****
17745 C1    -10.652516   -8.898588  -25.874876 C    2907 MOH     0.1166 ****
17746 HC2   -10.580348   -7.842450  -25.615367 H    2907 MOH     0.0372 ****
17747 HC3    -9.865588   -9.452581  -25.362223 H    2907 MOH     0.0372 ****
17748 O1    -11.978113   -9.417472  -25.640823 O    2907 MOH    -0.6497 ****
17749 HO1   -12.289304   -9.068828  -24.802195 H    2907 MOH     0.4215 ****
17750 HC1   -15.690475    9.941254  -34.775936 H    2908 MOH     0.0372 ****
17751 C1    -16.271289   10.322558  -33.935893 C    2908 MOH     0.1166 ****
17752 HC2   -15.973954   11.329706  -33.643858 H    2908 MOH     0.0372 ****
17753 HC3   -16.063443    9.667319  -33.089486 H    2908 MOH     0.0372 ****
17754 O1    -17.650579   10.278875  -34.220857 O    2908 MOH    -0.6497 ****
17755 HO1   -18.055879    9.604041  -33.671435 H    2908 MOH     0.4215 ****
17756 HC1   -27.112773   -0.415597  -23.750020 H    2909 MOH     0.0372 ****
17757 C1    -27.504216   -1.184737  -24.414700 C    2909 MOH     0.1166 ****
17758 HC2   -27.004808   -1.150852  -25.382730 H    2909 MOH     0.0372 ****
17759 HC3   -28.575778   -1.022254  -24.539151 H    2909 MOH     0.0372 ****
17760 O1    -27.363343   -2.451531  -23.829923 O    2909 MOH    -0.6497 ****
17761 HO1   -27.809634   -2.451939  -22.980688 H    2909 MOH     0.4215 ****
17762 HC1   -10.892694   -2.847532  -28.130546 H    2910 MOH     0.0372 ****
17763 C1    -10.909437   -3.854681  -28.548446 C    2910 MOH     0.1166 ****
17764 HC2   -10.407720   -4.513185  -27.840633 H    2910 MOH     0.0372 ****
17765 HC3   -10.358068   -3.883258  -29.488898 H    2910 MOH     0.0372 ****
17766 O1    -12.252354   -4.290281  -28.697646 O    2910 MOH    -0.6497 ****
17767 HO1   -12.744256   -4.029411  -27.914879 H    2910 MOH     0.4215 ****
17768 HC1   -16.757995    0.943462  -28.998874 H    2911 MOH     0.0372 ****
17769 C1    -17.821475    1.144320  -29.130395 C    2911 MOH     0.1166 ****
17770 HC2   -18.403444    0.223312  -29.103525 H    2911 MOH     0.0372 ****
17771 HC3   -17.986597    1.615030  -30.099839 H    2911 MOH     0.0372 ****
17772 O1    -18.271808    2.034709  -28.151053 O    2911 MOH    -0.6497 ****
17773 HO1   -18.161534    2.929181  -28.481271 H    2911 MOH     0.4215 ****
17774 HC1   -13.045056    3.871010  -31.795481 H    2912 MOH     0.0372 ****
17775 C1    -13.449201    4.216796  -32.746539 C    2912 MOH     0.1166 ****
17776 HC2   -14.382199    3.693422  -32.958671 H    2912 MOH     0.0372 ****
17777 HC3   -12.728091    4.071868  -33.550520 H    2912 MOH     0.0372 ****
17778 O1    -13.695730    5.582795  -32.592390 O    2912 MOH    -0.6497 ****
17779 HO1   -12.871273    6.038400  -32.404300 H    2912 MOH     0.4215 ****
17780 HC1   -17.277611   -7.384804  -26.591882 H    2913 MOH     0.0372 ****
17781 C1    -17.463517   -6.798967  -27.492029 C    2913 MOH     0.1166 ****
17782 HC2   -17.445620   -7.422771  -28.385812 H    2913 MOH     0.0372 ****
17783 HC3   -16.715849   -6.013498  -27.600923 H    2913 MOH     0.0372 ****
17784 O1    -18.705975   -6.210681  -27.362628 O    2913 MOH    -0.6497 ****
17785 HO1   -19.004465   -6.100046  -28.268432 H    2913 MOH     0.4215 ****
17786 HC1   -16.092888   -3.809773  -25.172719 H    2914 MOH     0.0372 ****
17787 C1    -15.338869   -4.563400  -25.400407 C    2914 MOH     0.1166 ****
17788 HC2   -15.824997   -5.452973  -25.799922 H    2914 MOH     0.0372 ****
17789 HC3   -14.849853   -4.852848  -24.470562 H    2914 MOH     0.0372 ****
17790 O1    -14.404716   -4.021246  -26.345102 O    2914 MOH    -0.6497 ****
17791 HO1   -14.188209   -3.123508  -26.085594 H    2914 MOH     0.4215 ****
17792 HC1   -17.847455    4.542987  -34.259041 H    2915 MOH     0.0372 ****
17793 C1    -18.084746    4.256396  -33.233736 C    2915 MOH     0.1166 ****
17794 HC2   -17.322644    3.593809  -32.824321 H    2915 MOH     0.0372 ****
17795 HC3   -19.037952    3.727715  -33.252828 H    2915 MOH     0.0372 ****
17796 O1    -18.186360    5.382753  -32.395815 O    2915 MOH    -0.6497 ****
17797 HO1   -17.412711    5.939196  -32.515316 H    2915 MOH     0.4215 ****
17798 HC1   -20.750373   -6.033910  -25.684664 H    2916 MOH     0.0372 ****
17799 C1    -20.662038   -5.047990  -25.228580 C    2916 MOH     0.1166 ****
17800 HC2   -21.263060   -5.016147  -24.320655 H    2916 MOH     0.0372 ****
17801 HC3   -21.014222   -4.312735  -25.951950 H    2916 MOH     0.0372 ****
17802 O1    -19.322008   -4.844274  -24.920989 O    2916 MOH    -0.6497 ****
17803 HO1   -18.837034   -5.310902  -25.604761 H    2916 MOH     0.4215 ****
17804 HC1   -10.805514    5.758342  -33.462132 H    2917 MOH     0.0372 ****
17805 C1    -10.385203    6.641791  -32.981299 C    2917 MOH     0.1166 ****
17806 HC2   -10.131746    7.383578  -33.738610 H    2917 MOH     0.0372 ****
17807 HC3    -9.498393    6.358875  -32.414906 H    2917 MOH     0.0372 ****
17808 O1    -11.390370    7.138221  -32.158227 O    2917 MOH    -0.6497 ****
17809 HO1   -11.034145    7.334589  -31.289192 H    2917 MOH     0.4215 ****
17810 HC1   -16.454309    8.066170  -20.886237 H    2918 MOH     0.0372 ****
17811 C1    -16.497033    8.940229  -21.536069 C    2918 MOH     0.1166 ****
17812 HC2   -15.696248    9.640375  -21.297774 H    2918 MOH     0.0372 ****
17813 HC3   -17.436382    9.456255  -21.340907 H    2918 MOH     0.0372 ****
17814 O1    -16.496456    8.585870  -22.927655 O    2918 MOH    -0.6497 ****
17815 HO1   -16.387337    9.378280  -23.458692 H    2918 MOH     0.4215 ****
17816 HC1   -18.786804  -10.871244  -24.870784 H    2919 MOH     0.0372 ****
17817 C1    -17.710623  -10.863079  -25.040490 C    2919 MOH     0.1166 ****
17818 HC2   -17.290312  -10.002900  -24.520766 H    2919 MOH     0.0372 ****
17819 HC3   -17.506819  -10.802658  -26.109635 H    2919 MOH     0.0372 ****
17820 O1    -17.117107  -12.007807  -24.539858 O    2919 MOH    -0.6497 ****
17821 HO1   -17.578988  -12.269086  -23.740827 H    2919 MOH     0.4215 ****
17822 HC1   -22.140632    3.796709  -32.272071 H    2920 MOH     0.0372 ****
17823 C1    -22.723178    2.923874  -31.976500 C    2920 MOH     0.1166 ****
17824 HC2   -22.387161    2.008990  -32.463697 H    2920 MOH     0.0372 ****
17825 HC3   -23.743356    3.103912  -32.313790 H    2920 MOH     0.0372 ****
17826 O1    -22.730107    2.776905  -30.573600 O    2920 MOH    -0.6497 ****
17827 HO1   -22.916591    3.638717  -30.192470 H    2920 MOH     0.4215 ****
17828 HC1   -22.971439    0.782204  -28.001146 H    2921 MOH     0.0372 ****
17829 C1    -21.939714    0.498471  -28.206914 C    2921 MOH     0.1166 ****
17830 HC2   -21.668937   -0.327415  -27.550012 H    2921 MOH     0.0372 ****
17831 HC3   -21.291350    1.349260  -27.996196 H    2921 MOH     0.0372 ****
17832 O1    -21.801727    0.179221  -29.568802 O    2921 MOH    -0.6497 ****
17833 HO1   -22.098485    0.972039  -30.021350 H    2921 MOH     0.4215 ****
17834 HC1   -11.345914   -3.779971  -20.358029 H    2922 MOH     0.0372 ****
17835 C1    -11.270859   -2.738121  -20.667741 C    2922 MOH     0.1166 ****
17836 HC2   -10.232205   -2.513585  -20.910986 H    2922 MOH     0.0372 ****
17837 HC3   -11.632857   -2.136772  -19.832648 H    2922 MOH     0.0372 ****
17838 O1    -12.158823   -2.580538  -21.743958 O    2922 MOH    -0.6497 ****
17839 HO1   -11.791628   -3.101054  -22.461671 H    2922 MOH     0.4215 ****
17840 HC1   -21.621017   -7.692623  -19.809314 H    2923 MOH     0.0372 ****
17841 C1    -20.628552   -7.671802  -20.259741 C    2923 MOH     0.1166 ****
17842 HC2   -20.105472   -6.760592  -19.969827 H    2923 MOH     0.0372 ****
17843 HC3   -20.688596   -7.727324  -21.345857 H    2923 MOH     0.0372 ****
17844 O1    -19.893585   -8.736514  -19.811435 O    2923 MOH    -0.6497 ****
17845 HO1   -20.340454   -9.532598  -20.107006 H    2923 MOH     0.4215 ****
17846 HC1   -23.681003    4.536863  -26.804014 H    2924 MOH     0.0372 ****
17847 C1    -23.920603    3.904078  -25.949829 C    2924 MOH     0.1166 ****
17848 HC2   -24.966184    4.028594  -25.669108 H    2924 MOH     0.0372 ****
17849 HC3   -23.288404    4.211489  -25.116150 H    2924 MOH     0.0372 ****
17850 O1    -23.618649    2.554001  -26.265906 O    2924 MOH    -0.6497 ****
17851 HO1   -24.081106    2.280883  -27.061401 H    2924 MOH     0.4215 ****
17852 HC1   -12.723472    4.693222  -36.336521 H    2925 MOH     0.0372 ****
17853 C1    -11.979845    4.172297  -36.938976 C    2925 MOH     0.1166 ****
17854 HC2   -11.064167    4.761808  -36.987059 H    2925 MOH     0.0372 ****
17855 HC3   -12.315862    4.051048  -37.969230 H    2925 MOH     0.0372 ****
17856 O1    -11.641517    2.943470  -36.354905 O    2925 MOH    -0.6497 ****
17857 HO1   -12.345307    2.671985  -35.761643 H    2925 MOH     0.4215 ****
17858 HC1   -12.007557   -0.983879  -31.676687 H    2926 MOH     0.0372 ****
17859 C1    -12.046817   -2.053489  -31.881748 C    2926 MOH     0.1166 ****
17860 HC2   -12.825085   -2.481742  -31.250301 H    2926 MOH     0.0372 ****
17861 HC3   -11.078023   -2.489907  -31.637796 H    2926 MOH     0.0372 ****
17862 O1    -12.335492   -2.345387  -33.249999 O    2926 MOH    -0.6497 ****
17863 HO1   -11.905944   -3.159842  -33.522236 H    2926 MOH     0.4215 ****
17864 HC1    -7.846017   -2.303745  -33.923165 H    2927 MOH     0.0372 ****
17865 C1     -8.368519   -1.374572  -33.695477 C    2927 MOH     0.1166 ****
17866 HC2    -9.400821   -1.587678  -33.416877 H    2927 MOH     0.0372 ****
17867 HC3    -8.328104   -0.728315  -34.571582 H    2927 MOH     0.0372 ****
17868 O1     -7.680894   -0.811190  -32.629160 O    2927 MOH    -0.6497 ****
17869 HO1    -7.218437   -1.526441  -32.186511 H    2927 MOH     0.4215 ****
17870 HC1   -14.445708   -7.089640  -24.283178 H    2928 MOH     0.0372 ****
17871 C1    -14.194560   -7.610157  -23.358990 C    2928 MOH     0.1166 ****
17872 HC2   -14.861400   -8.463804  -23.238074 H    2928 MOH     0.0372 ****
17873 HC3   -14.317536   -6.940221  -22.508340 H    2928 MOH     0.0372 ****
17874 O1    -12.854530   -8.040858  -23.455863 O    2928 MOH    -0.6497 ****
17875 HO1   -12.664582   -8.596484  -22.697138 H    2928 MOH     0.4215 ****
17876 HC1   -22.919478   -0.861404  -25.062410 H    2929 MOH     0.0372 ****
17877 C1    -23.929263   -0.462137  -24.970486 C    2929 MOH     0.1166 ****
17878 HC2   -24.541832   -1.203516  -24.457127 H    2929 MOH     0.0372 ****
17879 HC3   -24.330522   -0.270261  -25.966093 H    2929 MOH     0.0372 ****
17880 O1    -23.861136    0.726682  -24.208225 O    2929 MOH    -0.6497 ****
17881 HO1   -23.526850    1.419887  -24.782396 H    2929 MOH     0.4215 ****
17882 HC1   -10.461413   -7.517484  -29.338992 H    2930 MOH     0.0372 ****
17883 C1     -9.590192   -7.014114  -29.758306 C    2930 MOH     0.1166 ****
17884 HC2    -9.888105   -6.064937  -30.201662 H    2930 MOH     0.0372 ****
17885 HC3    -9.151406   -7.625670  -30.547437 H    2930 MOH     0.0372 ****
17886 O1     -8.621398   -6.738955  -28.772599 O    2930 MOH    -0.6497 ****
17887 HO1    -8.191272   -7.577088  -28.589459 H    2930 MOH     0.4215 ****
17888 HC1   -27.175704    6.374797  -26.638551 H    2931 MOH     0.0372 ****
17889 C1    -26.313142    6.837750  -27.117970 C    2931 MOH     0.1166 ****
17890 HC2   -25.526214    6.952468  -26.371972 H    2931 MOH     0.0372 ****
17891 HC3   -26.630108    7.829794  -27.440410 H    2931 MOH     0.0372 ****
17892 O1    -25.930359    6.050239  -28.276918 O    2931 MOH    -0.6497 ****
17893 HO1   -26.624334    6.096372  -28.938062 H    2931 MOH     0.4215 ****
17894 HC1   -20.489410    1.812214  -20.377828 H    2932 MOH     0.0372 ****
17895 C1    -19.881460    2.683008  -20.626022 C    2932 MOH     0.1166 ****
17896 HC2   -18.831838    2.413564  -20.740573 H    2932 MOH     0.0372 ****
17897 HC3   -19.938041    3.405199  -19.810728 H    2932 MOH     0.0372 ****
17898 O1    -20.276368    3.245166  -21.835882 O    2932 MOH    -0.6497 ****
17899 HO1   -19.994621    2.646674  -22.531675 H    2932 MOH     0.4215 ****
17900 HC1   -14.908743    8.062087  -31.065747 H    2933 MOH     0.0372 ****
17901 C1    -15.923724    7.678742  -31.169691 C    2933 MOH     0.1166 ****
17902 HC2   -16.644835    8.496055  -31.148478 H    2933 MOH     0.0372 ****
17903 HC3   -16.158706    6.983903  -30.363590 H    2933 MOH     0.0372 ****
17904 O1    -16.051319    6.966757  -32.351974 O    2933 MOH    -0.6497 ****
17905 HO1   -15.330786    6.333564  -32.383794 H    2933 MOH     0.4215 ****
17906 HC1   -12.034693   -0.220046  -23.805881 H    2934 MOH     0.0372 ****
17907 C1    -12.657077    0.674426  -23.815074 C    2934 MOH     0.1166 ****
17908 HC2   -12.213094    1.461529  -23.205548 H    2934 MOH     0.0372 ****
17909 HC3   -13.628757    0.396409  -23.405659 H    2934 MOH     0.0372 ****
17910 O1    -12.836632    1.127173  -25.136656 O    2934 MOH    -0.6497 ****
17911 HO1   -11.979267    1.402741  -25.469704 H    2934 MOH     0.4215 ****
17912 HC1   -20.294266    5.747727  -29.623956 H    2935 MOH     0.0372 ****
17913 C1    -20.112978    4.709552  -29.344649 C    2935 MOH     0.1166 ****
17914 HC2   -20.772312    4.072276  -29.933669 H    2935 MOH     0.0372 ****
17915 HC3   -20.337567    4.554826  -28.288938 H    2935 MOH     0.0372 ****
17916 O1    -18.782763    4.313959  -29.585772 O    2935 MOH    -0.6497 ****
17917 HO1   -18.603207    4.422145  -30.522689 H    2935 MOH     0.4215 ****
17918 HC1   -16.405812   -0.040417  -25.965385 H    2936 MOH     0.0372 ****
17919 C1    -15.952014    0.838950  -25.508594 C    2936 MOH     0.1166 ****
17920 HC2   -15.114857    1.155751  -26.130848 H    2936 MOH     0.0372 ****
17921 HC3   -15.648328    0.589919  -24.491775 H    2936 MOH     0.0372 ****
17922 O1    -16.902333    1.836709  -25.543950 O    2936 MOH    -0.6497 ****
17923 HO1   -17.230268    1.892231  -26.444804 H    2936 MOH     0.4215 ****
17924 HC1   -12.783516   -3.980829  -24.122665 H    2937 MOH     0.0372 ****
17925 C1    -11.960792   -4.671585  -24.307927 C    2937 MOH     0.1166 ****
17926 HC2   -11.685396   -4.550336  -25.355152 H    2937 MOH     0.0372 ****
17927 HC3   -12.269097   -5.711394  -24.201154 H    2937 MOH     0.0372 ****
17928 O1    -10.870755   -4.360908  -23.423336 O    2937 MOH    -0.6497 ****
17929 HO1   -10.259918   -5.101471  -23.410609 H    2937 MOH     0.4215 ****
17930 HC1    -7.949362   -3.023079  -25.187568 H    2938 MOH     0.0372 ****
17931 C1     -8.780747   -2.339671  -25.357274 C    2938 MOH     0.1166 ****
17932 HC2    -9.702775   -2.799767  -25.000185 H    2938 MOH     0.0372 ****
17933 HC3    -8.851184   -2.151469  -26.428540 H    2938 MOH     0.0372 ****
17934 O1     -8.452812   -1.119009  -24.705321 O    2938 MOH    -0.6497 ****
17935 HO1    -7.839666   -1.316193  -23.993265 H    2938 MOH     0.4215 ****
17936 HC1    -8.189540   -0.196776  -29.165044 H    2939 MOH     0.0372 ****
17937 C1     -9.199326   -0.517659  -29.421016 C    2939 MOH     0.1166 ****
17938 HC2    -9.896765   -0.086957  -28.701889 H    2939 MOH     0.0372 ****
17939 HC3    -9.280732   -1.604008  -29.386368 H    2939 MOH     0.0372 ****
17940 O1     -9.554396   -0.058380  -30.693101 O    2939 MOH    -0.6497 ****
17941 HO1    -8.955684   -0.465812  -31.322426 H    2939 MOH     0.4215 ****
17942 HC1   -14.699164  -12.982704  -26.750274 H    2940 MOH     0.0372 ****
17943 C1    -14.117773  -12.225403  -26.223479 C    2940 MOH     0.1166 ****
17944 HC2   -13.064108  -12.469536  -26.360658 H    2940 MOH     0.0372 ****
17945 HC3   -14.347558  -12.214789  -25.158576 H    2940 MOH     0.0372 ****
17946 O1    -14.245944  -10.965141  -26.775730 O    2940 MOH    -0.6497 ****
17947 HO1   -13.447469  -10.488715  -26.534606 H    2940 MOH     0.4215 ****
17948 HC1   -19.543711   -1.625645  -21.668298 H    2941 MOH     0.0372 ****
17949 C1    -19.198455   -2.468678  -22.265803 C    2941 MOH     0.1166 ****
17950 HC2   -18.458292   -3.000625  -21.666883 H    2941 MOH     0.0372 ****
17951 HC3   -18.756782   -2.082883  -23.184334 H    2941 MOH     0.0372 ****
17952 O1    -20.250965   -3.386420  -22.599557 O    2941 MOH    -0.6497 ****
17953 HO1   -19.972104   -3.899588  -23.361111 H    2941 MOH     0.4215 ****
17954 HC1   -12.386299    6.911643  -27.890837 H    2942 MOH     0.0372 ****
17955 C1    -12.878779    7.348061  -28.759871 C    2942 MOH     0.1166 ****
17956 HC2   -13.821015    7.835509  -28.509556 H    2942 MOH     0.0372 ****
17957 HC3   -13.131081    6.513601  -29.414652 H    2942 MOH     0.0372 ****
17958 O1    -12.041044    8.273151  -29.459907 O    2942 MOH    -0.6497 ****
17959 HO1   -12.582021    8.972889  -29.831845 H    2942 MOH     0.4215 ****
17960 HC1    -6.045261   -4.488282  -30.229946 H    2943 MOH     0.0372 ****
17961 C1     -6.951124   -4.163725  -30.741185 C    2943 MOH     0.1166 ****
17962 HC2    -7.836779   -4.556459  -30.241967 H    2943 MOH     0.0372 ****
17963 HC3    -6.943618   -4.511960  -31.774268 H    2943 MOH     0.0372 ****
17964 O1     -7.044077   -2.771598  -30.727042 O    2943 MOH    -0.6497 ****
17965 HO1    -6.773877   -2.486232  -29.850937 H    2943 MOH     0.4215 ****
17966 HC1   -13.510978    0.075526  -28.245098 H    2944 MOH     0.0372 ****
17967 C1    -12.847602   -0.746278  -27.975690 C    2944 MOH     0.1166 ****
17968 HC2   -11.831466   -0.360075  -27.897908 H    2944 MOH     0.0372 ****
17969 HC3   -12.861458   -1.528890  -28.734416 H    2944 MOH     0.0372 ****
17970 O1    -13.225767   -1.173306  -26.688756 O    2944 MOH    -0.6497 ****
17971 HO1   -13.172073   -0.404166  -26.117413 H    2944 MOH     0.4215 ****
17972 HC1    -9.731065    6.274776  -24.141757 H    2945 MOH     0.0372 ****
17973 C1    -10.070547    5.528906  -24.860885 C    2945 MOH     0.1166 ****
17974 HC2   -10.576883    4.691589  -24.379345 H    2945 MOH     0.0372 ****
17975 HC3    -9.183737    5.132089  -25.355859 H    2945 MOH     0.0372 ****
17976 O1    -10.911747    6.149444  -25.815479 O    2945 MOH    -0.6497 ****
17977 HO1   -10.382316    6.834484  -26.231258 H    2945 MOH     0.4215 ****
17978 HC1   -16.362510    3.770989  -29.978924 H    2946 MOH     0.0372 ****
17979 C1    -15.706063    4.046557  -29.153730 C    2946 MOH     0.1166 ****
17980 HC2   -16.252814    4.010631  -28.210449 H    2946 MOH     0.0372 ****
17981 HC3   -15.359653    5.069219  -29.304344 H    2946 MOH     0.0372 ****
17982 O1    -14.587158    3.174539  -29.088676 O    2946 MOH    -0.6497 ****
17983 HO1   -13.982095    3.501137  -28.418339 H    2946 MOH     0.4215 ****
17984 HC1   -12.586062    8.485849  -22.211356 H    2947 MOH     0.0372 ****
17985 C1    -12.897832    8.066986  -21.253933 C    2947 MOH     0.1166 ****
17986 HC2   -13.424952    8.813264  -20.661377 H    2947 MOH     0.0372 ****
17987 HC3   -12.005248    7.733447  -20.725724 H    2947 MOH     0.0372 ****
17988 O1    -13.712473    6.952876  -21.480914 O    2947 MOH    -0.6497 ****
17989 HO1   -14.398365    7.194151  -22.106704 H    2947 MOH     0.4215 ****
17990 HC1   -17.748729    5.410106  -23.419094 H    2948 MOH     0.0372 ****
17991 C1    -17.166759    5.652606  -24.308634 C    2948 MOH     0.1166 ****
17992 HC2   -17.203133    4.830802  -25.023519 H    2948 MOH     0.0372 ****
17993 HC3   -16.139653    5.795901  -23.971344 H    2948 MOH     0.0372 ****
17994 O1    -17.632681    6.896946  -24.840379 O    2948 MOH    -0.6497 ****
17995 HO1   -17.216989    7.574230  -24.302270 H    2948 MOH     0.4215 ****
17996 HC1   -20.254429    0.843849  -25.747597 H    2949 MOH     0.0372 ****
17997 C1    -20.091616    0.619721  -24.693300 C    2949 MOH     0.1166 ****
17998 HC2   -19.524081   -0.307003  -24.601376 H    2949 MOH     0.0372 ****
17999 HC3   -21.075421    0.502145  -24.239338 H    2949 MOH     0.0372 ****
18000 O1    -19.398796    1.696271  -24.101452 O    2949 MOH    -0.6497 ****
18001 HO1   -18.560483    1.786903  -24.559657 H    2949 MOH     0.4215 ****
18002 HC1   -22.319033   -5.222312  -20.988061 H    2950 MOH     0.0372 ****
18003 C1    -22.712209   -4.787528  -20.069529 C    2950 MOH     0.1166 ****
18004 HC2   -22.896384   -3.722816  -20.210950 H    2950 MOH     0.0372 ****
18005 HC3   -22.013038   -4.931639  -19.245750 H    2950 MOH     0.0372 ****
18006 O1    -23.876724   -5.448482  -19.740724 O    2950 MOH    -0.6497 ****
18007 HO1   -24.301077   -4.999000  -19.006041 H    2950 MOH     0.4215 ****
18008 HC1    -6.445365   -5.594226  -25.792851 H    2951 MOH     0.0372 ****
18009 C1     -6.061427   -4.997368  -26.620166 C    2951 MOH     0.1166 ****
18010 HC2    -5.373803   -5.614639  -27.198580 H    2951 MOH     0.0372 ****
18011 HC3    -5.560287   -4.135555  -26.178224 H    2951 MOH     0.0372 ****
18012 O1     -7.126638   -4.557684  -27.407176 O    2951 MOH    -0.6497 ****
18013 HO1    -7.656068   -5.313760  -27.668806 H    2951 MOH     0.4215 ****
18014 HC1   -15.979150    3.401933  -21.192415 H    2952 MOH     0.0372 ****
18015 C1    -15.915641    2.478883  -21.768707 C    2952 MOH     0.1166 ****
18016 HC2   -14.883917    2.274759  -22.054378 H    2952 MOH     0.0372 ****
18017 HC3   -16.532829    2.590743  -22.659661 H    2952 MOH     0.0372 ****
18018 O1    -16.433525    1.425603  -21.003617 O    2952 MOH    -0.6497 ****
18019 HO1   -16.183532    0.600941  -21.427881 H    2952 MOH     0.4215 ****
18020 HC1    -6.553329   -0.137580  -27.057158 H    2953 MOH     0.0372 ****
18021 C1     -5.913048   -1.012864  -26.948264 C    2953 MOH     0.1166 ****
18022 HC2    -6.063159   -1.413764  -25.945586 H    2953 MOH     0.0372 ****
18023 HC3    -4.874395   -0.700146  -27.054330 H    2953 MOH     0.0372 ****
18024 O1     -6.292367   -1.954693  -27.951648 O    2953 MOH    -0.6497 ****
18025 HO1    -6.363381   -2.827936  -27.559204 H    2953 MOH     0.4215 ****
18026 HC1   -25.552195    2.260471  -29.998723 H    2954 MOH     0.0372 ****
18027 C1    -25.284882    1.255772  -29.669918 C    2954 MOH     0.1166 ****
18028 HC2   -24.340337    0.966324  -30.130244 H    2954 MOH     0.0372 ****
18029 HC3   -26.047561    0.542154  -29.979631 H    2954 MOH     0.0372 ****
18030 O1    -25.117450    1.263528  -28.240855 O    2954 MOH    -0.6497 ****
18031 HO1   -25.945948    1.451322  -27.793964 H    2954 MOH     0.4215 ****
18032 HC1    -8.417594    2.075942  -22.636327 H    2955 MOH     0.0372 ****
18033 C1     -7.559074    2.437650  -23.202012 C    2955 MOH     0.1166 ****
18034 HC2    -7.907216    2.956942  -24.094381 H    2955 MOH     0.0372 ****
18035 HC3    -6.929762    1.597067  -23.495461 H    2955 MOH     0.0372 ****
18036 O1     -6.809673    3.327223  -22.406517 O    2955 MOH    -0.6497 ****
18037 HO1    -6.642241    2.908769  -21.558696 H    2955 MOH     0.4215 ****
18038 HC1    -7.618541    3.397034  -32.568348 H    2956 MOH     0.0372 ****
18039 C1     -8.065410    3.810998  -33.472031 C    2956 MOH     0.1166 ****
18040 HC2    -9.093093    4.129839  -33.300204 H    2956 MOH     0.0372 ****
18041 HC3    -8.034810    3.038592  -34.241363 H    2956 MOH     0.0372 ****
18042 O1     -7.254810    4.875301  -33.860233 O    2956 MOH    -0.6497 ****
18043 HO1    -7.072945    5.421537  -33.092315 H    2956 MOH     0.4215 ****
18044 HC1   -22.670640    8.338063  -27.921950 H    2957 MOH     0.0372 ****
18045 C1    -23.041298    7.941246  -26.977255 C    2957 MOH     0.1166 ****
18046 HC2   -22.186820    7.818363  -26.311868 H    2957 MOH     0.0372 ****
18047 HC3   -23.512994    6.965532  -27.093221 H    2957 MOH     0.0372 ****
18048 O1    -23.896354    8.876542  -26.415105 O    2957 MOH    -0.6497 ****
18049 HO1   -23.711602    8.878175  -25.473239 H    2957 MOH     0.4215 ****
18050 HC1   -22.786687   -4.716493  -15.770320 H    2958 MOH     0.0372 ****
18051 C1    -21.892372   -5.159034  -15.330499 C    2958 MOH     0.1166 ****
18052 HC2   -21.826554   -4.885916  -14.277617 H    2958 MOH     0.0372 ****
18053 HC3   -21.002097   -4.789161  -15.839616 H    2958 MOH     0.0372 ****
18054 O1    -21.943756   -6.571573  -15.446465 O    2958 MOH    -0.6497 ****
18055 HO1   -21.038470   -6.879800  -15.358077 H    2958 MOH     0.4215 ****
18056 HC1   -23.382512    3.663212  -22.183778 H    2959 MOH     0.0372 ****
18057 C1    -23.448908    3.402749  -21.127361 C    2959 MOH     0.1166 ****
18058 HC2   -23.340943    2.324566  -21.003617 H    2959 MOH     0.0372 ****
18059 HC3   -24.432713    3.717509  -20.778757 H    2959 MOH     0.0372 ****
18060 O1    -22.465103    4.121675  -20.403991 O    2959 MOH    -0.6497 ****
18061 HO1   -21.642379    4.012672  -20.886945 H    2959 MOH     0.4215 ****
18062 HC1   -19.055850   -0.973672  -17.968008 H    2960 MOH     0.0372 ****
18063 C1    -19.466346   -1.930198  -17.644860 C    2960 MOH     0.1166 ****
18064 HC2   -18.687500   -2.692806  -17.623647 H    2960 MOH     0.0372 ****
18065 HC3   -20.251542   -2.209032  -18.347017 H    2960 MOH     0.0372 ****
18066 O1    -20.062171   -1.785678  -16.389038 O    2960 MOH    -0.6497 ****
18067 HO1   -19.441520   -1.336605  -15.810625 H    2960 MOH     0.4215 ****
18068 HC1   -20.551187   -4.003283  -28.634714 H    2961 MOH     0.0372 ****
18069 C1    -20.862956   -2.959800  -28.670069 C    2961 MOH     0.1166 ****
18070 HC2   -20.056975   -2.302521  -28.341971 H    2961 MOH     0.0372 ****
18071 HC3   -21.705887   -2.836509  -27.991246 H    2961 MOH     0.0372 ****
18072 O1    -21.316176   -2.613606  -29.964074 O    2961 MOH    -0.6497 ****
18073 HO1   -21.527486   -1.677901  -29.934376 H    2961 MOH     0.4215 ****
18074 HC1   -24.825888   -4.832435  -27.818005 H    2962 MOH     0.0372 ****
18075 C1    -24.054548   -5.125557  -27.105242 C    2962 MOH     0.1166 ****
18076 HC2   -23.156768   -5.381937  -27.668099 H    2962 MOH     0.0372 ****
18077 HC3   -24.384793   -6.013906  -26.566426 H    2962 MOH     0.0372 ****
18078 O1    -23.794163   -4.048190  -26.196609 O    2962 MOH    -0.6497 ****
18079 HO1   -24.460425   -4.073093  -25.505766 H    2962 MOH     0.4215 ****
18080 HC1   -24.955215   -4.221696  -21.934877 H    2963 MOH     0.0372 ****
18081 C1    -24.471972   -4.372339  -22.900078 C    2963 MOH     0.1166 ****
18082 HC2   -24.016443   -5.361933  -22.919877 H    2963 MOH     0.0372 ****
18083 HC3   -23.711602   -3.603200  -23.038671 H    2963 MOH     0.0372 ****
18084 O1    -25.503120   -4.322941  -23.886492 O    2963 MOH    -0.6497 ****
18085 HO1   -26.015807   -3.521958  -23.756384 H    2963 MOH     0.4215 ****
18086 HC1   -15.438173    7.879192  -25.789316 H    2964 MOH     0.0372 ****
18087 C1    -14.492473    8.222120  -25.369294 C    2964 MOH     0.1166 ****
18088 HC2   -14.606211    9.196609  -24.893412 H    2964 MOH     0.0372 ****
18089 HC3   -13.762702    8.335613  -26.171154 H    2964 MOH     0.0372 ****
18090 O1    -14.050800    7.299888  -24.397023 O    2964 MOH    -0.6497 ****
18091 HO1   -13.219416    6.911643  -24.679158 H    2964 MOH     0.4215 ****
18092 HC1   -15.520156   -0.186570  -30.718557 H    2965 MOH     0.0372 ****
18093 C1    -14.738424    0.486632  -31.069989 C    2965 MOH     0.1166 ****
18094 HC2   -14.178972    0.051847  -31.898011 H    2965 MOH     0.0372 ****
18095 HC3   -14.053109    0.691572  -30.248331 H    2965 MOH     0.0372 ****
18096 O1    -15.312310    1.686065  -31.515467 O    2965 MOH    -0.6497 ****
18097 HO1   -15.117166    2.329465  -30.829573 H    2965 MOH     0.4215 ****
18098 HC1   -10.620300   22.554330  -30.447028 H    2966 MOH     0.0372 ****
18099 C1    -11.656644   22.693134  -30.140144 C    2966 MOH     0.1166 ****
18100 HC2   -12.220138   23.057292  -30.998572 H    2966 MOH     0.0372 ****
18101 HC3   -11.726503   23.443086  -29.351720 H    2966 MOH     0.0372 ****
18102 O1    -12.182033   21.450426  -29.722951 O    2966 MOH    -0.6497 ****
18103 HO1   -12.944712   21.602703  -29.160801 H    2966 MOH     0.4215 ****
18104 HC1   -16.121871   12.013359  -26.355708 H    2967 MOH     0.0372 ****
18105 C1    -16.922656   11.619399  -25.729919 C    2967 MOH     0.1166 ****
18106 HC2   -17.488459   10.889043  -26.309039 H    2967 MOH     0.0372 ****
18107 HC3   -17.595269   12.396296  -25.368587 H    2967 MOH     0.0372 ****
18108 O1    -16.425557   10.878429  -24.685522 O    2967 MOH    -0.6497 ****
18109 HO1   -15.881116   11.474471  -24.166506 H    2967 MOH     0.4215 ****
18110 HC1    -4.012526   13.252393  -21.849317 H    2968 MOH     0.0372 ****
18111 C1     -3.951327   14.032147  -21.091298 C    2968 MOH     0.1166 ****
18112 HC2    -3.591061   13.586340  -20.163574 H    2968 MOH     0.0372 ****
18113 HC3    -4.944370   14.457542  -20.945634 H    2968 MOH     0.0372 ****
18114 O1     -3.080106   15.054809  -21.519098 O    2968 MOH    -0.6497 ****
18115 HO1    -2.193296   14.694734  -21.585566 H    2968 MOH     0.4215 ****
18116 HC1     2.245951   18.001545  -27.629915 H    2969 MOH     0.0372 ****
18117 C1      2.679541   18.194646  -26.649158 C    2969 MOH     0.1166 ****
18118 HC2     2.965329   19.245477  -26.598246 H    2969 MOH     0.0372 ****
18119 HC3     3.567505   17.575334  -26.522585 H    2969 MOH     0.0372 ****
18120 O1      1.725181   17.879887  -25.641530 O    2969 MOH    -0.6497 ****
18121 HO1     1.926098   16.988273  -25.348788 H    2969 MOH     0.4215 ****
18122 HC1    -4.391268    7.147856  -35.262425 H    2970 MOH     0.0372 ****
18123 C1     -4.578330    6.161936  -34.837454 C    2970 MOH     0.1166 ****
18124 HC2    -4.970350    6.256650  -33.824877 H    2970 MOH     0.0372 ****
18125 HC3    -3.621083    5.645502  -34.768865 H    2970 MOH     0.0372 ****
18126 O1     -5.419529    5.358095  -35.686689 O    2970 MOH    -0.6497 ****
18127 HO1    -6.135443    5.011901  -35.149288 H    2970 MOH     0.4215 ****
18128 HC1    -1.760860    7.619791  -28.625521 H    2971 MOH     0.0372 ****
18129 C1     -2.609565    8.054575  -28.097312 C    2971 MOH     0.1166 ****
18130 HC2    -2.745820    9.081728  -28.435309 H    2971 MOH     0.0372 ****
18131 HC3    -2.445020    8.042328  -27.019682 H    2971 MOH     0.0372 ****
18132 O1     -3.775235    7.356471  -28.431067 O    2971 MOH    -0.6497 ****
18133 HO1    -3.748100    6.555896  -27.901444 H    2971 MOH     0.4215 ****
18134 HC1    -9.570677   21.103007  -25.778002 H    2972 MOH     0.0372 ****
18135 C1     -8.966769   21.654551  -25.057460 C    2972 MOH     0.1166 ****
18136 HC2    -8.155015   21.019316  -24.703907 H    2972 MOH     0.0372 ****
18137 HC3    -9.615133   21.940324  -24.228731 H    2972 MOH     0.0372 ****
18138 O1     -8.462165   22.778458  -25.712948 O    2972 MOH    -0.6497 ****
18139 HO1    -7.649256   23.040145  -25.273835 H    2972 MOH     0.4215 ****
18140 HC1   -11.508842   15.781491  -21.393233 H    2973 MOH     0.0372 ****
18141 C1    -12.529020   15.488777  -21.145039 C    2973 MOH     0.1166 ****
18142 HC2   -12.690101   15.546340  -20.069529 H    2973 MOH     0.0372 ****
18143 HC3   -12.737444   14.466523  -21.461822 H    2973 MOH     0.0372 ****
18144 O1    -13.415253   16.381207  -21.746079 O    2973 MOH    -0.6497 ****
18145 HO1   -12.963765   16.757612  -22.505512 H    2973 MOH     0.4215 ****
18146 HC1   -16.909954   18.568194  -25.188982 H    2974 MOH     0.0372 ****
18147 C1    -15.869569   18.595546  -25.514959 C    2974 MOH     0.1166 ****
18148 HC2   -15.285290   17.955821  -24.852399 H    2974 MOH     0.0372 ****
18149 HC3   -15.528355   19.629231  -25.461218 H    2974 MOH     0.0372 ****
18150 O1    -15.802596   18.113405  -26.837955 O    2974 MOH    -0.6497 ****
18151 HO1   -16.397267   17.360595  -26.881796 H    2974 MOH     0.4215 ****
18152 HC1   -14.029554   13.885994  -29.348891 H    2975 MOH     0.0372 ****
18153 C1    -13.115031   14.192180  -29.856594 C    2975 MOH     0.1166 ****
18154 HC2   -12.519783   14.846602  -29.219491 H    2975 MOH     0.0372 ****
18155 HC3   -13.390427   14.738416  -30.758862 H    2975 MOH     0.0372 ****
18156 O1    -12.412973   13.052759  -30.254695 O    2975 MOH    -0.6497 ****
18157 HO1   -11.478243   13.251576  -30.164893 H    2975 MOH     0.4215 ****
18158 HC1    -0.763199    9.705531  -32.782602 H    2976 MOH     0.0372 ****
18159 C1     -0.715856   10.428947  -31.968015 C    2976 MOH     0.1166 ****
18160 HC2    -1.509136   11.156446  -32.139135 H    2976 MOH     0.0372 ****
18161 HC3     0.244855   10.942524  -32.014684 H    2976 MOH     0.0372 ****
18162 O1     -0.901186    9.787181  -30.674009 O    2976 MOH    -0.6497 ****
18163 HO1    -1.092866   10.462832  -30.018521 H    2976 MOH     0.4215 ****
18164 HC1   -19.687009   17.485927  -26.489352 H    2977 MOH     0.0372 ****
18165 C1    -20.121754   16.600437  -26.026197 C    2977 MOH     0.1166 ****
18166 HC2   -20.533982   15.925602  -26.776437 H    2977 MOH     0.0372 ****
18167 HC3   -20.943900   16.886619  -25.369295 H    2977 MOH     0.0372 ****
18168 O1    -19.216468   15.897841  -25.230702 O    2977 MOH    -0.6497 ****
18169 HO1   -19.743012   15.180141  -24.870077 H    2977 MOH     0.4215 ****
18170 HC1    -6.097916   23.044228  -28.720274 H    2978 MOH     0.0372 ****
18171 C1     -6.763600   23.903182  -28.635421 C    2978 MOH     0.1166 ****
18172 HC2    -7.805718   23.583116  -28.642492 H    2978 MOH     0.0372 ****
18173 HC3    -6.628500   24.527802  -29.517890 H    2978 MOH     0.0372 ****
18174 O1     -6.537856   24.700083  -27.431925 O    2978 MOH    -0.6497 ****
18175 HO1    -6.610603   24.133026  -26.661886 H    2978 MOH     0.4215 ****
18176 HC1    -6.023437   12.390172  -19.770423 H    2979 MOH     0.0372 ****
18177 C1     -5.723793   11.343015  -19.785272 C    2979 MOH     0.1166 ****
18178 HC2    -5.089862   11.154405  -20.652185 H    2979 MOH     0.0372 ****
18179 HC3    -6.591550   10.689002  -19.864468 H    2979 MOH     0.0372 ****
18180 O1     -5.018848   11.031930  -18.591676 O    2979 MOH    -0.6497 ****
18181 HO1    -4.584681   10.183590  -18.710470 H    2979 MOH     0.4215 ****
18182 HC1     0.782368    7.042528  -32.178025 H    2980 MOH     0.0372 ****
18183 C1      0.102249    6.473838  -31.543751 C    2980 MOH     0.1166 ****
18184 HC2     0.456742    6.510988  -30.513496 H    2980 MOH     0.0372 ****
18185 HC3     0.047401    5.437295  -31.875384 H    2980 MOH     0.0372 ****
18186 O1     -1.130394    7.096825  -31.625775 O    2980 MOH    -0.6497 ****
18187 HO1    -1.028203    7.989664  -31.289899 H    2980 MOH     0.4215 ****
18188 HC1    -9.157295   27.298175  -25.986599 H    2981 MOH     0.0372 ****
18189 C1     -9.611669   27.596196  -26.931293 C    2981 MOH     0.1166 ****
18190 HC2   -10.692469   27.461474  -26.883210 H    2981 MOH     0.0372 ****
18191 HC3    -9.189049   26.971576  -27.719010 H    2981 MOH     0.0372 ****
18192 O1     -9.329922   28.953622  -27.190802 O    2981 MOH    -0.6497 ****
18193 HO1    -9.599545   29.147948  -28.091656 H    2981 MOH     0.4215 ****
18194 HC1    -8.116332   30.211843  -22.863308 H    2982 MOH     0.0372 ****
18195 C1     -8.458123   29.542316  -23.652439 C    2982 MOH     0.1166 ****
18196 HC2    -8.956377   28.666215  -23.236660 H    2982 MOH     0.0372 ****
18197 HC3    -7.585747   29.224290  -24.223074 H    2982 MOH     0.0372 ****
18198 O1     -9.239278   30.272264  -24.574507 O    2982 MOH    -0.6497 ****
18199 HO1    -9.212143   29.785224  -25.401114 H    2982 MOH     0.4215 ****
18200 HC1    -5.349670   13.505915  -27.194337 H    2983 MOH     0.0372 ****
18201 C1     -5.489966   13.351597  -28.263482 C    2983 MOH     0.1166 ****
18202 HC2    -5.686265   14.306081  -28.752800 H    2983 MOH     0.0372 ****
18203 HC3    -6.324237   12.672680  -28.439552 H    2983 MOH     0.0372 ****
18204 O1     -4.314481   12.797196  -28.815026 O    2983 MOH    -0.6497 ****
18205 HO1    -3.667848   12.696358  -28.112869 H    2983 MOH     0.4215 ****
18206 HC1    -2.586471   21.542282  -25.903867 H    2984 MOH     0.0372 ****
18207 C1     -2.103806   20.576367  -26.050945 C    2984 MOH     0.1166 ****
18208 HC2    -2.876878   19.822332  -26.198731 H    2984 MOH     0.0372 ****
18209 HC3    -1.539158   20.333867  -25.151506 H    2984 MOH     0.0372 ****
18210 O1     -1.195634   20.604128  -27.173831 O    2984 MOH    -0.6497 ****
18211 HO1    -0.484339   21.208335  -26.944728 H    2984 MOH     0.4215 ****
18212 HC1    -7.893475   13.299749  -34.563097 H    2985 MOH     0.0372 ****
18213 C1     -8.054556   12.286885  -34.194694 C    2985 MOH     0.1166 ****
18214 HC2    -8.805688   12.331793  -33.406977 H    2985 MOH     0.0372 ****
18215 HC3    -7.129640   11.886394  -33.779622 H    2985 MOH     0.0372 ****
18216 O1     -8.506043   11.440178  -35.251112 O    2985 MOH    -0.6497 ****
18217 HO1    -8.101321   10.582040  -35.101205 H    2985 MOH     0.4215 ****
18218 HC1     1.112035    7.416891  -26.948971 H    2986 MOH     0.0372 ****
18219 C1      0.945758    7.503848  -25.874876 C    2986 MOH     0.1166 ****
18220 HC2     1.017927    8.559987  -25.615367 H    2986 MOH     0.0372 ****
18221 HC3     1.732686    6.949855  -25.362223 H    2986 MOH     0.0372 ****
18222 O1     -0.379838    6.984965  -25.640823 O    2986 MOH    -0.6497 ****
18223 HO1    -0.691030    7.333609  -24.802195 H    2986 MOH     0.4215 ****
18224 HC1    -0.021881   24.813984  -17.767897 H    2987 MOH     0.0372 ****
18225 C1     -0.733177   23.988098  -17.778503 C    2987 MOH     0.1166 ****
18226 HC2    -0.371178   23.256925  -18.501873 H    2987 MOH     0.0372 ****
18227 HC3    -1.722178   24.360420  -18.048618 H    2987 MOH     0.0372 ****
18228 O1     -0.796685   23.414509  -16.493690 O    2987 MOH    -0.6497 ****
18229 HO1    -1.072659   24.098325  -15.879214 H    2987 MOH     0.4215 ****
18230 HC1   -15.514498   15.986840  -23.750020 H    2988 MOH     0.0372 ****
18231 C1    -15.905942   15.217700  -24.414700 C    2988 MOH     0.1166 ****
18232 HC2   -15.406534   15.251584  -25.382730 H    2988 MOH     0.0372 ****
18233 HC3   -16.977504   15.380183  -24.539151 H    2988 MOH     0.0372 ****
18234 O1    -15.765068   13.950905  -23.829923 O    2988 MOH    -0.6497 ****
18235 HO1   -16.211360   13.950497  -22.980688 H    2988 MOH     0.4215 ****
18236 HC1     0.705580   13.554905  -28.130546 H    2989 MOH     0.0372 ****
18237 C1      0.688837   12.547756  -28.548446 C    2989 MOH     0.1166 ****
18238 HC2     1.190554   11.889251  -27.840633 H    2989 MOH     0.0372 ****
18239 HC3     1.240206   12.519179  -29.488898 H    2989 MOH     0.0372 ****
18240 O1     -0.654080   12.112155  -28.697646 O    2989 MOH    -0.6497 ****
18241 HO1    -1.145982   12.373026  -27.914879 H    2989 MOH     0.4215 ****
18242 HC1    -5.159721   17.345898  -28.998874 H    2990 MOH     0.0372 ****
18243 C1     -6.223201   17.546756  -29.130395 C    2990 MOH     0.1166 ****
18244 HC2    -6.805170   16.625748  -29.103525 H    2990 MOH     0.0372 ****
18245 HC3    -6.388323   18.017467  -30.099839 H    2990 MOH     0.0372 ****
18246 O1     -6.673534   18.437146  -28.151053 O    2990 MOH    -0.6497 ****
18247 HO1    -6.563260   19.331618  -28.481271 H    2990 MOH     0.4215 ****
18248 HC1    -5.679337    9.017633  -26.591882 H    2991 MOH     0.0372 ****
18249 C1     -5.865243    9.603469  -27.492029 C    2991 MOH     0.1166 ****
18250 HC2    -5.847346    8.979666  -28.385812 H    2991 MOH     0.0372 ****
18251 HC3    -5.117575   10.388939  -27.600923 H    2991 MOH     0.0372 ****
18252 O1     -7.107701   10.191755  -27.362628 O    2991 MOH    -0.6497 ****
18253 HO1    -7.406191   10.302390  -28.268432 H    2991 MOH     0.4215 ****
18254 HC1    -4.494614   12.592663  -25.172719 H    2992 MOH     0.0372 ****
18255 C1     -3.740594   11.839037  -25.400407 C    2992 MOH     0.1166 ****
18256 HC2    -4.226723   10.949464  -25.799922 H    2992 MOH     0.0372 ****
18257 HC3    -3.251579   11.549589  -24.470562 H    2992 MOH     0.0372 ****
18258 O1     -2.806442   12.381191  -26.345102 O    2992 MOH    -0.6497 ****
18259 HO1    -2.589935   13.278929  -26.085594 H    2992 MOH     0.4215 ****
18260 HC1    -8.558005    5.963119  -27.907101 H    2993 MOH     0.0372 ****
18261 C1     -8.965037    6.963736  -28.052058 C    2993 MOH     0.1166 ****
18262 HC2   -10.010618    6.918012  -28.357528 H    2993 MOH     0.0372 ****
18263 HC3    -8.408471    7.421382  -28.868766 H    2993 MOH     0.0372 ****
18264 O1     -8.810307    7.787581  -26.895231 O    2993 MOH    -0.6497 ****
18265 HO1    -8.527405    8.667764  -27.155446 H    2993 MOH     0.4215 ****
18266 HC1    -9.152098   10.368527  -25.684664 H    2994 MOH     0.0372 ****
18267 C1     -9.063764   11.354446  -25.228580 C    2994 MOH     0.1166 ****
18268 HC2    -9.664786   11.386290  -24.320655 H    2994 MOH     0.0372 ****
18269 HC3    -9.415948   12.089701  -25.951950 H    2994 MOH     0.0372 ****
18270 O1     -7.723734   11.558162  -24.920989 O    2994 MOH    -0.6497 ****
18271 HO1    -7.238760   11.091534  -25.604761 H    2994 MOH     0.4215 ****
18272 HC1    -4.856035   24.468606  -20.886237 H    2995 MOH     0.0372 ****
18273 C1     -4.898759   25.342666  -21.536069 C    2995 MOH     0.1166 ****
18274 HC2    -4.097974   26.042812  -21.297774 H    2995 MOH     0.0372 ****
18275 HC3    -5.838108   25.858692  -21.340907 H    2995 MOH     0.0372 ****
18276 O1     -4.898182   24.988306  -22.927655 O    2995 MOH    -0.6497 ****
18277 HO1    -4.789063   25.780716  -23.458692 H    2995 MOH     0.4215 ****
18278 HC1    -7.188530    5.531193  -24.870784 H    2996 MOH     0.0372 ****
18279 C1     -6.112349    5.539358  -25.040490 C    2996 MOH     0.1166 ****
18280 HC2    -5.692038    6.399537  -24.520766 H    2996 MOH     0.0372 ****
18281 HC3    -5.908545    5.599778  -26.109635 H    2996 MOH     0.0372 ****
18282 O1     -5.518833    4.394629  -24.539858 O    2996 MOH    -0.6497 ****
18283 HO1    -5.980713    4.133350  -23.740827 H    2996 MOH     0.4215 ****
18284 HC1   -10.542358   20.199145  -32.272071 H    2997 MOH     0.0372 ****
18285 C1    -11.124904   19.326311  -31.976500 C    2997 MOH     0.1166 ****
18286 HC2   -10.788886   18.411426  -32.463697 H    2997 MOH     0.0372 ****
18287 HC3   -12.145082   19.506348  -32.313790 H    2997 MOH     0.0372 ****
18288 O1    -11.131833   19.179341  -30.573600 O    2997 MOH    -0.6497 ****
18289 HO1   -11.318317   20.041153  -30.192470 H    2997 MOH     0.4215 ****
18290 HC1   -11.373165   17.184640  -28.001146 H    2998 MOH     0.0372 ****
18291 C1    -10.341440   16.900907  -28.206914 C    2998 MOH     0.1166 ****
18292 HC2   -10.070663   16.075021  -27.550012 H    2998 MOH     0.0372 ****
18293 HC3    -9.693076   17.751697  -27.996196 H    2998 MOH     0.0372 ****
18294 O1    -10.203453   16.581657  -29.568802 O    2998 MOH    -0.6497 ****
18295 HO1   -10.500211   17.374475  -30.021350 H    2998 MOH     0.4215 ****
18296 HC1     0.252360   12.622465  -20.358029 H    2999 MOH     0.0372 ****
18297 C1      0.327416   13.664315  -20.667741 C    2999 MOH     0.1166 ****
18298 HC2     1.366069   13.888852  -20.910986 H    2999 MOH     0.0372 ****
18299 HC3    -0.034583   14.265665  -19.832648 H    2999 MOH     0.0372 ****
18300 O1     -0.560549   13.821899  -21.743958 O    2999 MOH    -0.6497 ****
18301 HO1    -0.193354   13.301382  -22.461671 H    2999 MOH     0.4215 ****
18302 HC1   -10.022743    8.709814  -19.809314 H    3000 MOH     0.0372 ****
18303 C1     -9.030278    8.730635  -20.259741 C    3000 MOH     0.1166 ****
18304 HC2    -8.507198    9.641845  -19.969827 H    3000 MOH     0.0372 ****
18305 HC3    -9.090322    8.675113  -21.345857 H    3000 MOH     0.0372 ****
18306 O1     -8.295311    7.665923  -19.811435 O    3000 MOH    -0.6497 ****
18307 HO1    -8.742180    6.869839  -20.107006 H    3000 MOH     0.4215 ****
18308 HC1   -12.082728   20.939300  -26.804014 H    3001 MOH     0.0372 ****
18309 C1    -12.322329   20.306515  -25.949829 C    3001 MOH     0.1166 ****
18310 HC2   -13.367910   20.431030  -25.669108 H    3001 MOH     0.0372 ****
18311 HC3   -11.690130   20.613926  -25.116150 H    3001 MOH     0.0372 ****
18312 O1    -12.020375   18.956438  -26.265906 O    3001 MOH    -0.6497 ****
18313 HO1   -12.482832   18.683320  -27.061401 H    3001 MOH     0.4215 ****
18314 HC1    -0.409283   15.418558  -31.676687 H    3002 MOH     0.0372 ****
18315 C1     -0.448543   14.348947  -31.881748 C    3002 MOH     0.1166 ****
18316 HC2    -1.226811   13.920695  -31.250301 H    3002 MOH     0.0372 ****
18317 HC3     0.520251   13.912530  -31.637796 H    3002 MOH     0.0372 ****
18318 O1     -0.737218   14.057050  -33.249999 O    3002 MOH    -0.6497 ****
18319 HO1    -0.307670   13.242595  -33.522236 H    3002 MOH     0.4215 ****
18320 HC1    -2.847434    9.312797  -24.283178 H    3003 MOH     0.0372 ****
18321 C1     -2.596286    8.792280  -23.358990 C    3003 MOH     0.1166 ****
18322 HC2    -3.263126    7.938633  -23.238074 H    3003 MOH     0.0372 ****
18323 HC3    -2.719262    9.462215  -22.508340 H    3003 MOH     0.0372 ****
18324 O1     -1.256256    8.361578  -23.455863 O    3003 MOH    -0.6497 ****
18325 HO1    -1.066308    7.805952  -22.697138 H    3003 MOH     0.4215 ****
18326 HC1   -11.321203   15.541032  -25.062410 H    3004 MOH     0.0372 ****
18327 C1    -12.330989   15.940299  -24.970486 C    3004 MOH     0.1166 ****
18328 HC2   -12.943558   15.198920  -24.457127 H    3004 MOH     0.0372 ****
18329 HC3   -12.732248   16.132176  -25.966093 H    3004 MOH     0.0372 ****
18330 O1    -12.262862   17.129118  -24.208225 O    3004 MOH    -0.6497 ****
18331 HO1   -11.928576   17.822324  -24.782396 H    3004 MOH     0.4215 ****
18332 HC1     1.136861    8.884952  -29.338992 H    3005 MOH     0.0372 ****
18333 C1      2.008082    9.388322  -29.758306 C    3005 MOH     0.1166 ****
18334 HC2     1.710170   10.337500  -30.201662 H    3005 MOH     0.0372 ****
18335 HC3     2.446868    8.776766  -30.547437 H    3005 MOH     0.0372 ****
18336 O1      2.976876    9.663482  -28.772599 O    3005 MOH    -0.6497 ****
18337 HO1     3.407002    8.825348  -28.589459 H    3005 MOH     0.4215 ****
18338 HC1   -15.577430   22.777233  -26.638551 H    3006 MOH     0.0372 ****
18339 C1    -14.714868   23.240187  -27.117970 C    3006 MOH     0.1166 ****
18340 HC2   -13.927940   23.354905  -26.371972 H    3006 MOH     0.0372 ****
18341 HC3   -15.031834   24.232230  -27.440410 H    3006 MOH     0.0372 ****
18342 O1    -14.332085   22.452676  -28.276918 O    3006 MOH    -0.6497 ****
18343 HO1   -15.026060   22.498808  -28.938062 H    3006 MOH     0.4215 ****
18344 HC1    -8.891136   18.214651  -20.377828 H    3007 MOH     0.0372 ****
18345 C1     -8.283186   19.085444  -20.626022 C    3007 MOH     0.1166 ****
18346 HC2    -7.233564   18.816000  -20.740573 H    3007 MOH     0.0372 ****
18347 HC3    -8.339767   19.807635  -19.810728 H    3007 MOH     0.0372 ****
18348 O1     -8.678094   19.647602  -21.835882 O    3007 MOH    -0.6497 ****
18349 HO1    -8.396347   19.049110  -22.531675 H    3007 MOH     0.4215 ****
18350 HC1    -9.831640   10.470589  -30.176206 H    3008 MOH     0.0372 ****
18351 C1     -8.974852   10.212576  -30.799874 C    3008 MOH     0.1166 ****
18352 HC2    -8.788945   11.005802  -31.523245 H    3008 MOH     0.0372 ****
18353 HC3    -9.220803    9.308714  -31.357075 H    3008 MOH     0.0372 ****
18354 O1     -7.811491   10.021924  -29.998722 O    3008 MOH    -0.6497 ****
18355 HO1    -7.115207    9.674096  -30.560165 H    3008 MOH     0.4215 ****
18356 HC1    -3.776967   10.130518  -30.992915 H    3009 MOH     0.0372 ****
18357 C1     -4.275221    9.354846  -31.572742 C    3009 MOH     0.1166 ****
18358 HC2    -3.548337    8.609385  -31.895183 H    3009 MOH     0.0372 ****
18359 HC3    -4.737678    9.828822  -32.438948 H    3009 MOH     0.0372 ****
18360 O1     -5.250365    8.724102  -30.775833 O    3009 MOH    -0.6497 ****
18361 HO1    -4.778670    8.355046  -30.026300 H    3009 MOH     0.4215 ****
18362 HC1    -0.436419   16.182391  -23.805881 H    3010 MOH     0.0372 ****
18363 C1     -1.058802   17.076863  -23.815074 C    3010 MOH     0.1166 ****
18364 HC2    -0.614820   17.863965  -23.205548 H    3010 MOH     0.0372 ****
18365 HC3    -2.030483   16.798845  -23.405659 H    3010 MOH     0.0372 ****
18366 O1     -1.238358   17.529610  -25.136656 O    3010 MOH    -0.6497 ****
18367 HO1    -0.380993   17.805177  -25.469704 H    3010 MOH     0.4215 ****
18368 HC1    -8.695992   22.150164  -29.623956 H    3011 MOH     0.0372 ****
18369 C1     -8.514704   21.111989  -29.344649 C    3011 MOH     0.1166 ****
18370 HC2    -9.174038   20.474713  -29.933669 H    3011 MOH     0.0372 ****
18371 HC3    -8.739293   20.957263  -28.288938 H    3011 MOH     0.0372 ****
18372 O1     -7.184489   20.716396  -29.585772 O    3011 MOH    -0.6497 ****
18373 HO1    -7.004933   20.824582  -30.522689 H    3011 MOH     0.4215 ****
18374 HC1    -4.807538   16.362020  -25.965385 H    3012 MOH     0.0372 ****
18375 C1     -4.353740   17.241387  -25.508594 C    3012 MOH     0.1166 ****
18376 HC2    -3.516583   17.558187  -26.130848 H    3012 MOH     0.0372 ****
18377 HC3    -4.050054   16.992355  -24.491775 H    3012 MOH     0.0372 ****
18378 O1     -5.304059   18.239145  -25.543950 O    3012 MOH    -0.6497 ****
18379 HO1    -5.631994   18.294667  -26.444804 H    3012 MOH     0.4215 ****
18380 HC1     2.555410   19.681078  -20.588545 H    3013 MOH     0.0372 ****
18381 C1      2.302531   20.545748  -19.974777 C    3013 MOH     0.1166 ****
18382 HC2     3.110244   20.729052  -19.266963 H    3013 MOH     0.0372 ****
18383 HC3     1.384544   20.313047  -19.435961 H    3013 MOH     0.0372 ****
18384 O1      2.110273   21.654142  -20.831083 O    3013 MOH    -0.6497 ****
18385 HO1     1.424958   21.383066  -21.446266 H    3013 MOH     0.4215 ****
18386 HC1    -1.185242   12.421607  -24.122665 H    3014 MOH     0.0372 ****
18387 C1     -0.362518   11.730851  -24.307927 C    3014 MOH     0.1166 ****
18388 HC2    -0.087122   11.852101  -25.355152 H    3014 MOH     0.0372 ****
18389 HC3    -0.670823   10.691043  -24.201154 H    3014 MOH     0.0372 ****
18390 O1      0.727519   12.041528  -23.423336 O    3014 MOH    -0.6497 ****
18391 HO1     1.338356   11.300966  -23.410609 H    3014 MOH     0.4215 ****
18392 HC1    -5.438004   13.763111  -33.317882 H    3015 MOH     0.0372 ****
18393 C1     -4.510780   13.586340  -32.774117 C    3015 MOH     0.1166 ****
18394 HC2    -4.576598   12.661657  -32.200653 H    3015 MOH     0.0372 ****
18395 HC3    -4.287345   14.422840  -32.111558 H    3015 MOH     0.0372 ****
18396 O1     -3.507345   13.484278  -33.704669 O    3015 MOH    -0.6497 ****
18397 HO1    -2.697322   13.825165  -33.317882 H    3015 MOH     0.4215 ****
18398 HC1     3.648912   13.379358  -25.187568 H    3016 MOH     0.0372 ****
18399 C1      2.817527   14.062765  -25.357274 C    3016 MOH     0.1166 ****
18400 HC2     1.895499   13.602670  -25.000185 H    3016 MOH     0.0372 ****
18401 HC3     2.747091   14.250968  -26.428540 H    3016 MOH     0.0372 ****
18402 O1      3.145462   15.283428  -24.705321 O    3016 MOH    -0.6497 ****
18403 HO1     3.758608   15.086244  -23.993265 H    3016 MOH     0.4215 ****
18404 HC1    -3.844518   15.608802  -16.704408 H    3017 MOH     0.0372 ****
18405 C1     -4.735946   16.235463  -16.736228 C    3017 MOH     0.1166 ****
18406 HC2    -5.624488   15.604719  -16.776533 H    3017 MOH     0.0372 ****
18407 HC3    -4.726709   16.853551  -17.634253 H    3017 MOH     0.0372 ****
18408 O1     -4.725554   17.082986  -15.614756 O    3017 MOH    -0.6497 ****
18409 HO1    -3.969803   17.663107  -15.731429 H    3017 MOH     0.4215 ****
18410 HC1    -2.187522   16.870697  -18.117914 H    3018 MOH     0.0372 ****
18411 C1     -1.962933   17.936633  -18.067710 C    3018 MOH     0.1166 ****
18412 HC2    -2.322045   18.484503  -18.938865 H    3018 MOH     0.0372 ****
18413 HC3    -0.876937   17.983174  -18.139835 H    3018 MOH     0.0372 ****
18414 O1     -2.323777   18.534717  -16.801282 O    3018 MOH    -0.6497 ****
18415 HO1    -2.395946   19.483486  -16.927147 H    3018 MOH     0.4215 ****
18416 HC1    -3.100890    3.419732  -26.750274 H    3019 MOH     0.0372 ****
18417 C1     -2.519499    4.177033  -26.223479 C    3019 MOH     0.1166 ****
18418 HC2    -1.465834    3.932901  -26.360658 H    3019 MOH     0.0372 ****
18419 HC3    -2.749284    4.187647  -25.158576 H    3019 MOH     0.0372 ****
18420 O1     -2.647670    5.437296  -26.775730 O    3019 MOH    -0.6497 ****
18421 HO1    -1.849195    5.913721  -26.534606 H    3019 MOH     0.4215 ****
18422 HC1    -7.945436   14.776792  -21.668298 H    3020 MOH     0.0372 ****
18423 C1     -7.600181   13.933759  -22.265803 C    3020 MOH     0.1166 ****
18424 HC2    -6.860018   13.401811  -21.666883 H    3020 MOH     0.0372 ****
18425 HC3    -7.158508   14.319554  -23.184334 H    3020 MOH     0.0372 ****
18426 O1     -8.652691   13.016017  -22.599557 O    3020 MOH    -0.6497 ****
18427 HO1    -8.373830   12.502849  -23.361111 H    3020 MOH     0.4215 ****
18428 HC1    -2.880342    3.097216  -31.412936 H    3021 MOH     0.0372 ****
18429 C1     -2.913251    4.182340  -31.511931 C    3021 MOH     0.1166 ****
18430 HC2    -2.468114    4.651418  -30.634411 H    3021 MOH     0.0372 ****
18431 HC3    -3.950750    4.508122  -31.586884 H    3021 MOH     0.0372 ****
18432 O1     -2.227359    4.559562  -32.677243 O    3021 MOH    -0.6497 ****
18433 HO1    -2.125746    5.512821  -32.636938 H    3021 MOH     0.4215 ****
18434 HC1     5.553013   11.914155  -30.229946 H    3022 MOH     0.0372 ****
18435 C1      4.647150   12.238712  -30.741185 C    3022 MOH     0.1166 ****
18436 HC2     3.761495   11.845977  -30.241967 H    3022 MOH     0.0372 ****
18437 HC3     4.654656   11.890476  -31.774268 H    3022 MOH     0.0372 ****
18438 O1      4.554197   13.630839  -30.727042 O    3022 MOH    -0.6497 ****
18439 HO1     4.824397   13.916204  -29.850937 H    3022 MOH     0.4215 ****
18440 HC1    -1.912703   16.477962  -28.245098 H    3023 MOH     0.0372 ****
18441 C1     -1.249328   15.656158  -27.975690 C    3023 MOH     0.1166 ****
18442 HC2    -0.233192   16.042361  -27.897908 H    3023 MOH     0.0372 ****
18443 HC3    -1.263184   14.873546  -28.734416 H    3023 MOH     0.0372 ****
18444 O1     -1.627492   15.229131  -26.688756 O    3023 MOH    -0.6497 ****
18445 HO1    -1.573799   15.998271  -26.117413 H    3023 MOH     0.4215 ****
18446 HC1     1.867209   22.677213  -24.141757 H    3024 MOH     0.0372 ****
18447 C1      1.527727   21.931343  -24.860885 C    3024 MOH     0.1166 ****
18448 HC2     1.021391   21.094026  -24.379345 H    3024 MOH     0.0372 ****
18449 HC3     2.414537   21.534526  -25.355859 H    3024 MOH     0.0372 ****
18450 O1      0.686527   22.551880  -25.815479 O    3024 MOH    -0.6497 ****
18451 HO1     1.215958   23.236921  -26.231258 H    3024 MOH     0.4215 ****
18452 HC1    -7.426398   15.441012  -33.122720 H    3025 MOH     0.0372 ****
18453 C1     -8.056865   15.127477  -32.291163 C    3025 MOH     0.1166 ****
18454 HC2    -9.033164   14.814759  -32.661687 H    3025 MOH     0.0372 ****
18455 HC3    -8.227183   15.954588  -31.601027 H    3025 MOH     0.0372 ****
18456 O1     -7.454689   14.073380  -31.595370 O    3025 MOH    -0.6497 ****
18457 HO1    -8.105362   13.719020  -30.985844 H    3025 MOH     0.4215 ****
18458 HC1    -4.764236   20.173426  -29.978924 H    3026 MOH     0.0372 ****
18459 C1     -4.107789   20.448993  -29.153730 C    3026 MOH     0.1166 ****
18460 HC2    -4.654540   20.413068  -28.210449 H    3026 MOH     0.0372 ****
18461 HC3    -3.761379   21.471655  -29.304344 H    3026 MOH     0.0372 ****
18462 O1     -2.988884   19.576975  -29.088676 O    3026 MOH    -0.6497 ****
18463 HO1    -2.383821   19.903574  -28.418339 H    3026 MOH     0.4215 ****
18464 HC1    -0.987788   24.888285  -22.211356 H    3027 MOH     0.0372 ****
18465 C1     -1.299558   24.469423  -21.253933 C    3027 MOH     0.1166 ****
18466 HC2    -1.826678   25.215700  -20.661377 H    3027 MOH     0.0372 ****
18467 HC3    -0.406974   24.135884  -20.725724 H    3027 MOH     0.0372 ****
18468 O1     -2.114199   23.355313  -21.480914 O    3027 MOH    -0.6497 ****
18469 HO1    -2.800091   23.596588  -22.106704 H    3027 MOH     0.4215 ****
18470 HC1   -15.426164   10.105615  -29.925891 H    3028 MOH     0.0372 ****
18471 C1    -14.782418   10.889860  -30.322577 C    3028 MOH     0.1166 ****
18472 HC2   -14.748355   11.691251  -29.585065 H    3028 MOH     0.0372 ****
18473 HC3   -15.181367   11.329951  -31.237574 H    3028 MOH     0.0372 ****
18474 O1    -13.470678   10.425273  -30.553094 O    3028 MOH    -0.6497 ****
18475 HO1   -13.028428   11.212376  -30.878363 H    3028 MOH     0.4215 ****
18476 HC1    -6.150454   21.812543  -23.419094 H    3029 MOH     0.0372 ****
18477 C1     -5.568485   22.055042  -24.308634 C    3029 MOH     0.1166 ****
18478 HC2    -5.604858   21.233238  -25.023519 H    3029 MOH     0.0372 ****
18479 HC3    -4.541379   22.198337  -23.971344 H    3029 MOH     0.0372 ****
18480 O1     -6.034407   23.299383  -24.840379 O    3029 MOH    -0.6497 ****
18481 HO1    -5.618715   23.976667  -24.302270 H    3029 MOH     0.4215 ****
18482 HC1    -8.656155   17.246286  -25.747597 H    3030 MOH     0.0372 ****
18483 C1     -8.493342   17.022157  -24.693300 C    3030 MOH     0.1166 ****
18484 HC2    -7.925807   16.095434  -24.601376 H    3030 MOH     0.0372 ****
18485 HC3    -9.477147   16.904582  -24.239338 H    3030 MOH     0.0372 ****
18486 O1     -7.800522   18.098708  -24.101452 O    3030 MOH    -0.6497 ****
18487 HO1    -6.962209   18.189339  -24.559657 H    3030 MOH     0.4215 ****
18488 HC1   -10.720759   11.180124  -20.988061 H    3031 MOH     0.0372 ****
18489 C1    -11.113935   11.614909  -20.069529 C    3031 MOH     0.1166 ****
18490 HC2   -11.298109   12.679620  -20.210950 H    3031 MOH     0.0372 ****
18491 HC3   -10.414764   11.470797  -19.245750 H    3031 MOH     0.0372 ****
18492 O1    -12.278450   10.953955  -19.740724 O    3031 MOH    -0.6497 ****
18493 HO1   -12.702803   11.403436  -19.006041 H    3031 MOH     0.4215 ****
18494 HC1    -6.746857    7.866781  -36.125803 H    3032 MOH     0.0372 ****
18495 C1     -7.483556    8.212567  -35.401018 C    3032 MOH     0.1166 ****
18496 HC2    -7.754333    7.404644  -34.720074 H    3032 MOH     0.0372 ****
18497 HC3    -8.392305    8.512222  -35.921449 H    3032 MOH     0.0372 ****
18498 O1     -7.043615    9.294017  -34.606937 O    3032 MOH    -0.6497 ****
18499 HO1    -6.096183    9.225431  -34.471173 H    3032 MOH     0.4215 ****
18500 HC1    -7.909641    5.616108  -30.363590 H    3033 MOH     0.0372 ****
18501 C1     -6.874452    5.920253  -30.519860 C    3033 MOH     0.1166 ****
18502 HC2    -6.285554    5.017616  -30.687444 H    3033 MOH     0.0372 ****
18503 HC3    -6.501483    6.477104  -29.661433 H    3033 MOH     0.0372 ****
18504 O1     -6.876761    6.651834  -31.696486 O    3033 MOH    -0.6497 ****
18505 HO1    -6.239366    7.360961  -31.586884 H    3033 MOH     0.4215 ****
18506 HC1     5.152909   10.808210  -25.792851 H    3034 MOH     0.0372 ****
18507 C1      5.536847   11.405069  -26.620166 C    3034 MOH     0.1166 ****
18508 HC2     6.224471   10.787798  -27.198580 H    3034 MOH     0.0372 ****
18509 HC3     6.037987   12.266881  -26.178224 H    3034 MOH     0.0372 ****
18510 O1      4.471636   11.844752  -27.407176 O    3034 MOH    -0.6497 ****
18511 HO1     3.942206   11.088677  -27.668806 H    3034 MOH     0.4215 ****
18512 HC1    -4.380876   19.804369  -21.192415 H    3035 MOH     0.0372 ****
18513 C1     -4.317367   18.881320  -21.768707 C    3035 MOH     0.1166 ****
18514 HC2    -3.285642   18.677196  -22.054378 H    3035 MOH     0.0372 ****
18515 HC3    -4.934555   18.993180  -22.659661 H    3035 MOH     0.0372 ****
18516 O1     -4.835251   17.828039  -21.003617 O    3035 MOH    -0.6497 ****
18517 HO1    -4.585258   17.003378  -21.427881 H    3035 MOH     0.4215 ****
18518 HC1     5.044945   16.264857  -27.057158 H    3036 MOH     0.0372 ****
18519 C1      5.685226   15.389572  -26.948264 C    3036 MOH     0.1166 ****
18520 HC2     5.535115   14.988673  -25.945586 H    3036 MOH     0.0372 ****
18521 HC3     6.723879   15.702291  -27.054330 H    3036 MOH     0.0372 ****
18522 O1      5.305907   14.447744  -27.951648 O    3036 MOH    -0.6497 ****
18523 HO1     5.234893   13.574500  -27.559204 H    3036 MOH     0.4215 ****
18524 HC1   -13.953921   18.662907  -29.998723 H    3037 MOH     0.0372 ****
18525 C1    -13.686607   17.658208  -29.669918 C    3037 MOH     0.1166 ****
18526 HC2   -12.742062   17.368760  -30.130244 H    3037 MOH     0.0372 ****
18527 HC3   -14.449287   16.944590  -29.979631 H    3037 MOH     0.0372 ****
18528 O1    -13.519176   17.665965  -28.240855 O    3037 MOH    -0.6497 ****
18529 HO1   -14.347674   17.853759  -27.793964 H    3037 MOH     0.4215 ****
18530 HC1     3.180681   18.478379  -22.636327 H    3038 MOH     0.0372 ****
18531 C1      4.039200   18.840087  -23.202012 C    3038 MOH     0.1166 ****
18532 HC2     3.691058   19.359379  -24.094381 H    3038 MOH     0.0372 ****
18533 HC3     4.668512   17.999504  -23.495461 H    3038 MOH     0.0372 ****
18534 O1      4.788601   19.729660  -22.406517 O    3038 MOH    -0.6497 ****
18535 HO1     4.956033   19.311205  -21.558696 H    3038 MOH     0.4215 ****
18536 HC1   -11.072365   24.740499  -27.921950 H    3039 MOH     0.0372 ****
18537 C1    -11.443024   24.343682  -26.977255 C    3039 MOH     0.1166 ****
18538 HC2   -10.588546   24.220799  -26.311868 H    3039 MOH     0.0372 ****
18539 HC3   -11.914720   23.367969  -27.093221 H    3039 MOH     0.0372 ****
18540 O1    -12.298080   25.278979  -26.415105 O    3039 MOH    -0.6497 ****
18541 HO1   -12.113328   25.280612  -25.473239 H    3039 MOH     0.4215 ****
18542 HC1   -11.188413   11.685944  -15.770320 H    3040 MOH     0.0372 ****
18543 C1    -10.294097   11.243403  -15.330499 C    3040 MOH     0.1166 ****
18544 HC2   -10.228279   11.516521  -14.277617 H    3040 MOH     0.0372 ****
18545 HC3    -9.403823   11.613276  -15.839616 H    3040 MOH     0.0372 ****
18546 O1    -10.345482    9.830864  -15.446465 O    3040 MOH    -0.6497 ****
18547 HO1    -9.440196    9.522636  -15.358077 H    3040 MOH     0.4215 ****
18548 HC1   -12.534794    7.327485  -37.434657 H    3041 MOH     0.0372 ****
18549 C1    -12.020952    7.636529  -36.524611 C    3041 MOH     0.1166 ****
18550 HC2   -10.937843    7.610401  -36.640576 H    3041 MOH     0.0372 ****
18551 HC3   -12.324061    6.997212  -35.694468 H    3041 MOH     0.0372 ****
18552 O1    -12.460315    8.893934  -36.241768 O    3041 MOH    -0.6497 ****
18553 HO1   -12.792292    9.256050  -37.066962 H    3041 MOH     0.4215 ****
18554 HC1   -11.784238   20.065648  -22.183778 H    3042 MOH     0.0372 ****
18555 C1    -11.850634   19.805186  -21.127361 C    3042 MOH     0.1166 ****
18556 HC2   -11.742669   18.727002  -21.003617 H    3042 MOH     0.0372 ****
18557 HC3   -12.834439   20.119945  -20.778757 H    3042 MOH     0.0372 ****
18558 O1    -10.866829   20.524111  -20.403991 O    3042 MOH    -0.6497 ****
18559 HO1   -10.044105   20.415109  -20.886945 H    3042 MOH     0.4215 ****
18560 HC1    -4.237693   22.626590  -17.335147 H    3043 MOH     0.0372 ****
18561 C1     -3.800062   21.723136  -17.760118 C    3043 MOH     0.1166 ****
18562 HC2    -3.556420   21.918279  -18.803808 H    3043 MOH     0.0372 ****
18563 HC3    -4.505584   20.896842  -17.666780 H    3043 MOH     0.0372 ****
18564 O1     -2.663836   21.425523  -17.012706 O    3043 MOH    -0.6497 ****
18565 HO1    -2.036257   22.151389  -17.060790 H    3043 MOH     0.4215 ****
18566 HC1    -7.457576   15.428764  -17.968008 H    3044 MOH     0.0372 ****
18567 C1     -7.868072   14.472238  -17.644860 C    3044 MOH     0.1166 ****
18568 HC2    -7.089226   13.709631  -17.623647 H    3044 MOH     0.0372 ****
18569 HC3    -8.653268   14.193405  -18.347017 H    3044 MOH     0.0372 ****
18570 O1     -8.463897   14.616758  -16.389038 O    3044 MOH    -0.6497 ****
18571 HO1    -7.843246   15.065832  -15.810625 H    3044 MOH     0.4215 ****
18572 HC1   -10.683231   10.536317  -33.701134 H    3045 MOH     0.0372 ****
18573 C1    -11.565423   11.119703  -33.440211 C    3045 MOH     0.1166 ****
18574 HC2   -11.261159   12.118279  -33.129084 H    3045 MOH     0.0372 ****
18575 HC3   -12.100626   10.629805  -32.627038 H    3045 MOH     0.0372 ****
18576 O1    -12.386415   11.174817  -34.607645 O    3045 MOH    -0.6497 ****
18577 HO1   -12.477059   10.286060  -34.960491 H    3045 MOH     0.4215 ****
18578 HC1    -3.146501    1.543832  -28.250047 H    3046 MOH     0.0372 ****
18579 C1     -2.308766    1.772042  -28.909778 C    3046 MOH     0.1166 ****
18580 HC2    -1.951386    2.773475  -28.674311 H    3046 MOH     0.0372 ****
18581 HC3    -2.659217    1.727135  -29.940740 H    3046 MOH     0.0372 ****
18582 O1     -1.227966    0.830214  -28.705424 O    3046 MOH    -0.6497 ****
18583 HO1    -0.394850    1.218458  -28.983317 H    3046 MOH     0.4215 ****
18584 HC1    -8.952913   12.399154  -28.634714 H    3047 MOH     0.0372 ****
18585 C1     -9.264682   13.442636  -28.670069 C    3047 MOH     0.1166 ****
18586 HC2    -8.458701   14.099916  -28.341971 H    3047 MOH     0.0372 ****
18587 HC3   -10.107613   13.565927  -27.991246 H    3047 MOH     0.0372 ****
18588 O1     -9.717902   13.788831  -29.964074 O    3047 MOH    -0.6497 ****
18589 HO1    -9.929212   14.724536  -29.934376 H    3047 MOH     0.4215 ****
18590 HC1    -2.256804   20.412659  -21.137260 H    3048 MOH     0.0372 ****
18591 C1     -1.331312   20.712314  -20.643700 C    3048 MOH     0.1166 ****
18592 HC2    -0.887329   19.858258  -20.131754 H    3048 MOH     0.0372 ****
18593 HC3    -1.577263   21.464307  -19.894167 H    3048 MOH     0.0372 ****
18594 O1     -0.449121   21.211601  -21.669712 O    3048 MOH    -0.6497 ****
18595 HO1    -0.639646   22.149756  -21.744665 H    3048 MOH     0.4215 ****
18596 HC1   -13.227614   11.570001  -27.818005 H    3049 MOH     0.0372 ****
18597 C1    -12.456274   11.276879  -27.105242 C    3049 MOH     0.1166 ****
18598 HC2   -11.558494   11.020499  -27.668099 H    3049 MOH     0.0372 ****
18599 HC3   -12.786518   10.388531  -26.566426 H    3049 MOH     0.0372 ****
18600 O1    -12.195889   12.354246  -26.196609 O    3049 MOH    -0.6497 ****
18601 HO1   -12.862151   12.329343  -25.505766 H    3049 MOH     0.4215 ****
18602 HC1   -13.356941   12.180741  -21.934877 H    3050 MOH     0.0372 ****
18603 C1    -12.873698   12.030097  -22.900078 C    3050 MOH     0.1166 ****
18604 HC2   -12.418169   11.040503  -22.919877 H    3050 MOH     0.0372 ****
18605 HC3   -12.113328   12.799237  -23.038671 H    3050 MOH     0.0372 ****
18606 O1    -13.904846   12.079495  -23.886492 O    3050 MOH    -0.6497 ****
18607 HO1   -14.417533   12.880478  -23.756384 H    3050 MOH     0.4215 ****
18608 HC1   -17.657045   13.608385  -28.268432 H    3051 MOH     0.0372 ****
18609 C1    -17.069303   14.524086  -28.206914 C    3051 MOH     0.1166 ****
18610 HC2   -16.603381   14.734742  -29.169993 H    3051 MOH     0.0372 ****
18611 HC3   -16.280642   14.375484  -27.470109 H    3051 MOH     0.0372 ****
18612 O1    -17.851035   15.648810  -27.831440 O    3051 MOH    -0.6497 ****
18613 HO1   -18.251139   15.484694  -26.974427 H    3051 MOH     0.4215 ****
18614 HC1    -3.839899   24.281628  -25.789316 H    3052 MOH     0.0372 ****
18615 C1     -2.894199   24.624557  -25.369294 C    3052 MOH     0.1166 ****
18616 HC2    -3.007937   25.599046  -24.893412 H    3052 MOH     0.0372 ****
18617 HC3    -2.164428   24.738050  -26.171154 H    3052 MOH     0.0372 ****
18618 O1     -2.452526   23.702324  -24.397023 O    3052 MOH    -0.6497 ****
18619 HO1    -1.621142   23.314080  -24.679158 H    3052 MOH     0.4215 ****
18620 HC1    -3.921882   16.215867  -30.718557 H    3053 MOH     0.0372 ****
18621 C1     -3.140150   16.889068  -31.069989 C    3053 MOH     0.1166 ****
18622 HC2    -2.580698   16.454284  -31.898011 H    3053 MOH     0.0372 ****
18623 HC3    -2.454835   17.094009  -30.248331 H    3053 MOH     0.0372 ****
18624 O1     -3.714036   18.088502  -31.515467 O    3053 MOH    -0.6497 ****
18625 HO1    -3.518892   18.731901  -30.829573 H    3053 MOH     0.4215 ****
18626 HC1    -4.523597   28.415795  -26.355708 H    3054 MOH     0.0372 ****
18627 C1     -5.324382   28.021836  -25.729919 C    3054 MOH     0.1166 ****
18628 HC2    -5.890185   27.291480  -26.309039 H    3054 MOH     0.0372 ****
18629 HC3    -5.996995   28.798732  -25.368587 H    3054 MOH     0.0372 ****
18630 O1     -4.827283   27.280865  -24.685522 O    3054 MOH    -0.6497 ****
18631 HO1    -4.282842   27.876908  -24.166506 H    3054 MOH     0.4215 ****
18632 HC1     5.574837   28.792609  -19.770423 H    3055 MOH     0.0372 ****
18633 C1      5.874481   27.745452  -19.785272 C    3055 MOH     0.1166 ****
18634 HC2     6.508412   27.556841  -20.652185 H    3055 MOH     0.0372 ****
18635 HC3     5.006724   27.091438  -19.864468 H    3055 MOH     0.0372 ****
18636 O1      6.579426   27.434367  -18.591676 O    3055 MOH    -0.6497 ****
18637 HO1     7.013594   26.586027  -18.710470 H    3055 MOH     0.4215 ****
18638 HC1     1.575531   25.112250  -19.809314 H    3056 MOH     0.0372 ****
18639 C1      2.567996   25.133071  -20.259741 C    3056 MOH     0.1166 ****
18640 HC2     3.091076   26.044281  -19.969827 H    3056 MOH     0.0372 ****
18641 HC3     2.507952   25.077549  -21.345857 H    3056 MOH     0.0372 ****
18642 O1      3.302963   24.068359  -19.811435 O    3056 MOH    -0.6497 ****
18643 HO1     2.856094   23.272275  -20.107006 H    3056 MOH     0.4215 ****
18644 HC1     7.753757   32.011238  -16.704408 H    3057 MOH     0.0372 ****
18645 C1      6.862328   32.637899  -16.736228 C    3057 MOH     0.1166 ****
18646 HC2     5.973786   32.007156  -16.776533 H    3057 MOH     0.0372 ****
18647 HC3     6.871565   33.255987  -17.634253 H    3057 MOH     0.0372 ****
18648 O1      6.872720   33.485423  -15.614756 O    3057 MOH    -0.6497 ****
18649 HO1     7.628472   34.065544  -15.731429 H    3057 MOH     0.4215 ****
18650 HC1     0.877515   27.582561  -20.988061 H    3058 MOH     0.0372 ****
18651 C1      0.484339   28.017345  -20.069529 C    3058 MOH     0.1166 ****
18652 HC2     0.300165   29.082057  -20.210950 H    3058 MOH     0.0372 ****
18653 HC3     1.183510   27.873234  -19.245750 H    3058 MOH     0.0372 ****
18654 O1     -0.680176   27.356391  -19.740724 O    3058 MOH    -0.6497 ****
18655 HO1    -1.104529   27.805873  -19.006041 H    3058 MOH     0.4215 ****
18656 HC1     0.409861   28.088380  -15.770320 H    3059 MOH     0.0372 ****
18657 C1      1.304177   27.645839  -15.330499 C    3059 MOH     0.1166 ****
18658 HC2     1.369995   27.918957  -14.277617 H    3059 MOH     0.0372 ****
18659 HC3     2.194451   28.015712  -15.839616 H    3059 MOH     0.0372 ****
18660 O1      1.252792   26.233300  -15.446465 O    3059 MOH    -0.6497 ****
18661 HO1     2.158078   25.925073  -15.358077 H    3059 MOH     0.4215 ****
18662 HC1     4.140699   31.831201  -17.968008 H    3060 MOH     0.0372 ****
18663 C1      3.730203   30.874675  -17.644860 C    3060 MOH     0.1166 ****
18664 HC2     4.509048   30.112067  -17.623647 H    3060 MOH     0.0372 ****
18665 HC3     2.945006   30.595841  -18.347017 H    3060 MOH     0.0372 ****
18666 O1      3.134377   31.019195  -16.389038 O    3060 MOH    -0.6497 ****
18667 HO1     3.755029   31.468268  -15.810625 H    3060 MOH     0.4215 ****
18668 HC1    -1.758666   28.583177  -21.934877 H    3061 MOH     0.0372 ****
18669 C1     -1.275424   28.432534  -22.900078 C    3061 MOH     0.1166 ****
18670 HC2    -0.819895   27.442940  -22.919877 H    3061 MOH     0.0372 ****
18671 HC3    -0.515054   29.201673  -23.038671 H    3061 MOH     0.0372 ****
18672 O1     -2.306572   28.481932  -23.886492 O    3061 MOH    -0.6497 ****
18673 HO1    -2.819259   29.282915  -23.756384 H    3061 MOH     0.4215 ****
18674 HC1    -8.116332    5.608188  -37.068235 H    3062 MOH     0.0372 ****
18675 C1     -8.458123    4.938661  -37.857366 C    3062 MOH     0.1166 ****
18676 HC2    -8.956377    4.062560  -37.441587 H    3062 MOH     0.0372 ****
18677 HC3    -7.585747    4.620636  -38.428001 H    3062 MOH     0.0372 ****
18678 O1     -9.239278    5.668609  -38.779433 O    3062 MOH    -0.6497 ****
18679 HO1    -9.212143    5.181569  -39.606041 H    3062 MOH     0.4215 ****
18680 HC1    -0.021881    0.210329  -31.972823 H    3063 MOH     0.0372 ****
18681 C1     -0.733177   -0.615557  -31.983430 C    3063 MOH     0.1166 ****
18682 HC2    -0.371178   -1.346730  -32.706800 H    3063 MOH     0.0372 ****
18683 HC3    -1.722178   -0.243235  -32.253544 H    3063 MOH     0.0372 ****
18684 O1     -0.796685   -1.189146  -30.698617 O    3063 MOH    -0.6497 ****
18685 HO1    -1.072659   -0.505330  -30.084141 H    3063 MOH     0.4215 ****
18686 HC1    -4.856035   -0.135049  -35.091164 H    3064 MOH     0.0372 ****
18687 C1     -4.898759    0.739011  -35.740995 C    3064 MOH     0.1166 ****
18688 HC2    -4.097974    1.439157  -35.502700 H    3064 MOH     0.0372 ****
18689 HC3    -5.838108    1.255037  -35.545834 H    3064 MOH     0.0372 ****
18690 O1     -4.898182    0.384651  -37.132581 O    3064 MOH    -0.6497 ****
18691 HO1    -4.789062    1.177061  -37.663618 H    3064 MOH     0.4215 ****
18692 HC1     2.555410   -4.922576  -34.793472 H    3065 MOH     0.0372 ****
18693 C1      2.302531   -4.057907  -34.179703 C    3065 MOH     0.1166 ****
18694 HC2     3.110244   -3.874603  -33.471889 H    3065 MOH     0.0372 ****
18695 HC3     1.384544   -4.290608  -33.640888 H    3065 MOH     0.0372 ****
18696 O1      2.110273   -2.949512  -35.036010 O    3065 MOH    -0.6497 ****
18697 HO1     1.424959   -3.220589  -35.651193 H    3065 MOH     0.4215 ****
18698 HC1    -3.844517   -8.994853  -30.909334 H    3066 MOH     0.0372 ****
18699 C1     -4.735946   -8.368192  -30.941154 C    3066 MOH     0.1166 ****
18700 HC2    -5.624488   -8.998936  -30.981459 H    3066 MOH     0.0372 ****
18701 HC3    -4.726709   -7.750104  -31.839180 H    3066 MOH     0.0372 ****
18702 O1     -4.725554   -7.520669  -29.819683 O    3066 MOH    -0.6497 ****
18703 HO1    -3.969802   -6.940548  -29.936356 H    3066 MOH     0.4215 ****
18704 HC1    -2.187522   -7.732958  -32.322841 H    3067 MOH     0.0372 ****
18705 C1     -1.962933   -6.667021  -32.272636 C    3067 MOH     0.1166 ****
18706 HC2    -2.322045   -6.119152  -33.143792 H    3067 MOH     0.0372 ****
18707 HC3    -0.876937   -6.620481  -32.344761 H    3067 MOH     0.0372 ****
18708 O1     -2.323777   -6.068938  -31.006208 O    3067 MOH    -0.6497 ****
18709 HO1    -2.395946   -5.120169  -31.132073 H    3067 MOH     0.4215 ****
18710 HC1     1.867209   -1.926442  -38.346684 H    3068 MOH     0.0372 ****
18711 C1      1.527727   -2.672312  -39.065811 C    3068 MOH     0.1166 ****
18712 HC2     1.021391   -3.509629  -38.584271 H    3068 MOH     0.0372 ****
18713 HC3     2.414537   -3.069129  -39.560786 H    3068 MOH     0.0372 ****
18714 O1      0.686528   -2.051775  -40.020405 O    3068 MOH    -0.6497 ****
18715 HO1     1.215958   -1.366734  -40.436184 H    3068 MOH     0.4215 ****
18716 HC1    -0.987788    0.284630  -36.416282 H    3069 MOH     0.0372 ****
18717 C1     -1.299557   -0.134232  -35.458860 C    3069 MOH     0.1166 ****
18718 HC2    -1.826678    0.612046  -34.866304 H    3069 MOH     0.0372 ****
18719 HC3    -0.406974   -0.467771  -34.930651 H    3069 MOH     0.0372 ****
18720 O1     -2.114199   -1.248342  -35.685841 O    3069 MOH    -0.6497 ****
18721 HO1    -2.800091   -1.007067  -36.311630 H    3069 MOH     0.4215 ****
18722 HC1     3.180681   -6.125276  -36.841253 H    3070 MOH     0.0372 ****
18723 C1      4.039201   -5.763568  -37.406939 C    3070 MOH     0.1166 ****
18724 HC2     3.691058   -5.244276  -38.299307 H    3070 MOH     0.0372 ****
18725 HC3     4.668512   -6.604151  -37.700388 H    3070 MOH     0.0372 ****
18726 O1      4.788601   -4.873995  -36.611443 O    3070 MOH    -0.6497 ****
18727 HO1     4.956033   -5.292449  -35.763622 H    3070 MOH     0.4215 ****
18728 HC1    -4.237693   -1.977065  -31.540074 H    3071 MOH     0.0372 ****
18729 C1     -3.800061   -2.880519  -31.965045 C    3071 MOH     0.1166 ****
18730 HC2    -3.556420   -2.685376  -33.008735 H    3071 MOH     0.0372 ****
18731 HC3    -4.505583   -3.706813  -31.871707 H    3071 MOH     0.0372 ****
18732 O1     -2.663836   -3.178132  -31.217633 O    3071 MOH    -0.6497 ****
18733 HO1    -2.036256   -2.452266  -31.265716 H    3071 MOH     0.4215 ****
18734 HC1    -2.256804   -4.190996  -35.342187 H    3072 MOH     0.0372 ****
18735 C1     -1.331312   -3.891341  -34.848626 C    3072 MOH     0.1166 ****
18736 HC2    -0.887329   -4.745397  -34.336681 H    3072 MOH     0.0372 ****
18737 HC3    -1.577263   -3.139348  -34.099093 H    3072 MOH     0.0372 ****
18738 O1     -0.449120   -3.392054  -35.874638 O    3072 MOH    -0.6497 ****
18739 HO1    -0.639646   -2.453899  -35.949592 H    3072 MOH     0.4215 ****
18740 HC1     5.574837    4.188954  -33.975349 H    3073 MOH     0.0372 ****
18741 C1      5.874482    3.141797  -33.990199 C    3073 MOH     0.1166 ****
18742 HC2     6.508412    2.953186  -34.857112 H    3073 MOH     0.0372 ****
18743 HC3     5.006724    2.487783  -34.069395 H    3073 MOH     0.0372 ****
18744 O1      6.579426    2.830712  -32.796602 O    3073 MOH    -0.6497 ****
18745 HO1     7.013594    1.982372  -32.915396 H    3073 MOH     0.4215 ****
18746 HC1     1.575531    0.508595  -34.014240 H    3074 MOH     0.0372 ****
18747 C1      2.567997    0.529416  -34.464667 C    3074 MOH     0.1166 ****
18748 HC2     3.091076    1.440626  -34.174754 H    3074 MOH     0.0372 ****
18749 HC3     2.507952    0.473894  -35.550783 H    3074 MOH     0.0372 ****
18750 O1      3.302963   -0.535295  -34.016362 O    3074 MOH    -0.6497 ****
18751 HO1     2.856094   -1.331380  -34.311932 H    3074 MOH     0.4215 ****
18752 HC1     7.753757    7.407583  -30.909334 H    3075 MOH     0.0372 ****
18753 C1      6.862328    8.034244  -30.941154 C    3075 MOH     0.1166 ****
18754 HC2     5.973786    7.403501  -30.981459 H    3075 MOH     0.0372 ****
18755 HC3     6.871565    8.652332  -31.839180 H    3075 MOH     0.0372 ****
18756 O1      6.872720    8.881768  -29.819683 O    3075 MOH    -0.6497 ****
18757 HO1     7.628472    9.461889  -29.936356 H    3075 MOH     0.4215 ****
18758 HC1     0.877515    2.978906  -35.192987 H    3076 MOH     0.0372 ****
18759 C1      0.484339    3.413690  -34.274456 C    3076 MOH     0.1166 ****
18760 HC2     0.300165    4.478402  -34.415877 H    3076 MOH     0.0372 ****
18761 HC3     1.183511    3.269579  -33.450676 H    3076 MOH     0.0372 ****
18762 O1     -0.680176    2.752736  -33.945651 O    3076 MOH    -0.6497 ****
18763 HO1    -1.104528    3.202218  -33.210967 H    3076 MOH     0.4215 ****
18764 HC1     0.409861    3.484726  -29.975246 H    3077 MOH     0.0372 ****
18765 C1      1.304177    3.042184  -29.535426 C    3077 MOH     0.1166 ****
18766 HC2     1.369995    3.315303  -28.482544 H    3077 MOH     0.0372 ****
18767 HC3     2.194451    3.412057  -30.044543 H    3077 MOH     0.0372 ****
18768 O1      1.252793    1.629645  -29.651391 O    3077 MOH    -0.6497 ****
18769 HO1     2.158078    1.321418  -29.563003 H    3077 MOH     0.4215 ****
18770 HC1     4.140699    7.227546  -32.172934 H    3078 MOH     0.0372 ****
18771 C1      3.730203    6.271020  -31.849786 C    3078 MOH     0.1166 ****
18772 HC2     4.509048    5.508412  -31.828573 H    3078 MOH     0.0372 ****
18773 HC3     2.945006    5.992187  -32.551944 H    3078 MOH     0.0372 ****
18774 O1      3.134377    6.415540  -30.593965 O    3078 MOH    -0.6497 ****
18775 HO1     3.755029    6.864613  -30.015552 H    3078 MOH     0.4215 ****
18776 HC1    -1.758666    3.979522  -36.139803 H    3079 MOH     0.0372 ****
18777 C1     -1.275424    3.828879  -37.105004 C    3079 MOH     0.1166 ****
18778 HC2    -0.819895    2.839285  -37.124803 H    3079 MOH     0.0372 ****
18779 HC3    -0.515054    4.598019  -37.243597 H    3079 MOH     0.0372 ****
18780 O1     -2.306572    3.878277  -38.091418 O    3079 MOH    -0.6497 ****
18781 HO1    -2.819259    4.679260  -37.961310 H    3079 MOH     0.4215 ****
@<TRIPOS>BOND
    1   354   353 1
    2   355   353 1
    3   356   353 1
    4   357   356 1
    5   358   357 1
    6   359   358 1
    7   360   359 1
    8   361   360 1
    9   362   361 1
   10   362   358 1
   11   363   362 1
   12   364   360 1
   13   365   360 1
   14   366   359 1
   15   367   359 1
   16   368   358 1
   17   369   357 1
   18   370   356 1
   19   309   308 1
   20   310   308 1
   21   311   310 1
   22   312   310 1
   23   313   312 1
   24   314   313 1
   25   315   314 1
   26   316   315 1
   27   317   316 1
   28   318   317 1
   29   319   318 1
   30   320   318 1
   31   321   320 1
   32   322   321 1
   33   323   321 1
   34   324   321 1
   35   325   317 1
   36   326   317 1
   37   327   316 1
   38   328   316 1
   39   329   314 1
   40   330   314 1
   41   331   313 1
   42   332   313 1
   43   333   312 1
   44   334   312 1
   45   335   334 1
   46   336   334 1
   47   337   336 1
   48   338   336 1
   49   339   338 1
   50   340   338 1
   51   341   338 1
   52   342   341 1
   53   343   341 1
   54   344   341 1
   55   345   344 1
   56   346   345 1
   57   347   345 1
   58   348   347 1
   59   349   347 1
   60   350   347 1
   61   350   353 1
   62   351   350 1
   63   352   350 1
   64   261   260 1
   65   262   260 1
   66   263   262 1
   67   264   262 1
   68   265   264 1
   69   266   265 1
   70   267   266 1
   71   268   267 1
   72   269   268 1
   73   270   269 1
   74   271   270 1
   75   272   270 1
   76   273   272 1
   77   274   273 1
   78   275   273 1
   79   276   273 1
   80   277   269 1
   81   278   269 1
   82   279   268 1
   83   280   268 1
   84   281   266 1
   85   282   266 1
   86   283   265 1
   87   284   265 1
   88   285   264 1
   89   286   264 1
   90   287   286 1
   91   288   286 1
   92   289   288 1
   93   290   288 1
   94   291   290 1
   95   292   290 1
   96   293   290 1
   97   294   293 1
   98   295   293 1
   99   296   293 1
  100   297   296 1
  101   298   297 1
  102   299   297 1
  103   300   299 1
  104   301   299 1
  105   302   299 1
  106   303   302 1
  107   304   302 1
  108   305   302 1
  109   305   308 1
  110   306   305 1
  111   307   305 1
  112   213   212 1
  113   214   212 1
  114   215   214 1
  115   216   214 1
  116   217   216 1
  117   218   217 1
  118   219   218 1
  119   220   219 1
  120   221   220 1
  121   222   221 1
  122   223   222 1
  123   224   222 1
  124   225   224 1
  125   226   225 1
  126   227   225 1
  127   228   225 1
  128   229   221 1
  129   230   221 1
  130   231   220 1
  131   232   220 1
  132   233   218 1
  133   234   218 1
  134   235   217 1
  135   236   217 1
  136   237   216 1
  137   238   216 1
  138   239   238 1
  139   240   238 1
  140   241   240 1
  141   242   240 1
  142   243   242 1
  143   244   242 1
  144   245   242 1
  145   246   245 1
  146   247   245 1
  147   248   245 1
  148   249   248 1
  149   250   249 1
  150   251   249 1
  151   252   251 1
  152   253   251 1
  153   254   251 1
  154   255   254 1
  155   256   254 1
  156   257   254 1
  157   257   260 1
  158   258   257 1
  159   259   257 1
  160   165   164 1
  161   166   164 1
  162   167   166 1
  163   168   166 1
  164   169   168 1
  165   170   169 1
  166   171   170 1
  167   172   171 1
  168   173   172 1
  169   174   173 1
  170   175   174 1
  171   176   174 1
  172   177   176 1
  173   178   177 1
  174   179   177 1
  175   180   177 1
  176   181   173 1
  177   182   173 1
  178   183   172 1
  179   184   172 1
  180   185   170 1
  181   186   170 1
  182   187   169 1
  183   188   169 1
  184   189   168 1
  185   190   168 1
  186   191   190 1
  187   192   190 1
  188   193   192 1
  189   194   192 1
  190   195   194 1
  191   196   194 1
  192   197   194 1
  193   198   197 1
  194   199   197 1
  195   200   197 1
  196   201   200 1
  197   202   201 1
  198   203   201 1
  199   204   203 1
  200   205   203 1
  201   206   203 1
  202   207   206 1
  203   208   206 1
  204   209   206 1
  205   209   212 1
  206   210   209 1
  207   211   209 1
  208   117   116 1
  209   118   116 1
  210   119   118 1
  211   120   118 1
  212   121   120 1
  213   122   121 1
  214   123   122 1
  215   124   123 1
  216   125   124 1
  217   126   125 1
  218   127   126 1
  219   128   126 1
  220   129   128 1
  221   130   129 1
  222   131   129 1
  223   132   129 1
  224   133   125 1
  225   134   125 1
  226   135   124 1
  227   136   124 1
  228   137   122 1
  229   138   122 1
  230   139   121 1
  231   140   121 1
  232   141   120 1
  233   142   120 1
  234   143   142 1
  235   144   142 1
  236   145   144 1
  237   146   144 1
  238   147   146 1
  239   148   146 1
  240   149   146 1
  241   150   149 1
  242   151   149 1
  243   152   149 1
  244   153   152 1
  245   154   153 1
  246   155   153 1
  247   156   155 1
  248   157   155 1
  249   158   155 1
  250   159   158 1
  251   160   158 1
  252   161   158 1
  253   161   164 1
  254   162   161 1
  255   163   161 1
  256    66    65 1
  257    67    65 1
  258    68    67 1
  259    69    67 1
  260    70    69 1
  261    71    70 1
  262    72    71 1
  263    73    72 1
  264    74    73 1
  265    75    74 1
  266    76    75 1
  267    77    76 1
  268    78    77 1
  269    79    78 1
  270    80    79 1
  271    80    75 1
  272    81    79 1
  273    82    78 1
  274    83    77 1
  275    84    76 1
  276    85    74 1
  277    86    74 1
  278    87    73 1
  279    88    73 1
  280    89    71 1
  281    90    71 1
  282    91    70 1
  283    92    70 1
  284    93    69 1
  285    94    69 1
  286    95    94 1
  287    96    94 1
  288    97    96 1
  289    98    96 1
  290    99    98 1
  291   100    98 1
  292   101    98 1
  293   102   101 1
  294   103   101 1
  295   104   101 1
  296   105   104 1
  297   106   105 1
  298   107   105 1
  299   108   107 1
  300   109   107 1
  301   110   107 1
  302   111   110 1
  303   112   110 1
  304   113   110 1
  305   113   116 1
  306   114   113 1
  307   115   113 1
  308    15    14 1
  309    16    14 1
  310    17    16 1
  311    18    16 1
  312    19    18 1
  313    20    19 1
  314    21    20 1
  315    22    21 1
  316    23    22 1
  317    24    23 1
  318    25    24 1
  319    26    25 1
  320    27    26 1
  321    28    27 1
  322    29    28 1
  323    29    24 1
  324    30    28 1
  325    31    27 1
  326    32    26 1
  327    33    25 1
  328    34    23 1
  329    35    23 1
  330    36    22 1
  331    37    22 1
  332    38    20 1
  333    39    20 1
  334    40    19 1
  335    41    19 1
  336    42    18 1
  337    43    18 1
  338    44    43 1
  339    45    43 1
  340    46    45 1
  341    47    45 1
  342    48    47 1
  343    49    47 1
  344    50    47 1
  345    51    50 1
  346    52    50 1
  347    53    50 1
  348    54    53 1
  349    55    54 1
  350    56    54 1
  351    57    56 1
  352    58    56 1
  353    59    56 1
  354    60    59 1
  355    61    59 1
  356    62    59 1
  357    62    65 1
  358    63    62 1
  359    64    62 1
  360     2     1 1
  361     3     1 1
  362     4     3 1
  363     5     3 1
  364     6     5 1
  365     7     5 1
  366     8     5 1
  367     9     8 1
  368    10     8 1
  369    11     8 1
  370    11    14 1
  371    12    11 1
  372    13    11 1
  373   372   371 1
  374   373   371 1
  375   374   371 1
  376   375   371 1
  377   376   371 1
  378   377   371 1
  379   381   380 1
  380   382   381 1
  381   383   381 1
  382   384   381 1
  383   385   384 1
  384   387   386 1
  385   388   387 1
  386   389   387 1
  387   390   387 1
  388   391   390 1
  389   393   392 1
  390   394   393 1
  391   395   393 1
  392   396   393 1
  393   397   396 1
  394   399   398 1
  395   400   399 1
  396   401   399 1
  397   402   399 1
  398   403   402 1
  399   405   404 1
  400   406   405 1
  401   407   405 1
  402   408   405 1
  403   409   408 1
  404   411   410 1
  405   412   411 1
  406   413   411 1
  407   414   411 1
  408   415   414 1
  409   417   416 1
  410   418   417 1
  411   419   417 1
  412   420   417 1
  413   421   420 1
  414   423   422 1
  415   424   423 1
  416   425   423 1
  417   426   423 1
  418   427   426 1
  419   429   428 1
  420   430   429 1
  421   431   429 1
  422   432   429 1
  423   433   432 1
  424   435   434 1
  425   436   435 1
  426   437   435 1
  427   438   435 1
  428   439   438 1
  429   441   440 1
  430   442   441 1
  431   443   441 1
  432   444   441 1
  433   445   444 1
  434   447   446 1
  435   448   447 1
  436   449   447 1
  437   450   447 1
  438   451   450 1
  439   453   452 1
  440   454   453 1
  441   455   453 1
  442   456   453 1
  443   457   456 1
  444   459   458 1
  445   460   459 1
  446   461   459 1
  447   462   459 1
  448   463   462 1
  449   465   464 1
  450   466   465 1
  451   467   465 1
  452   468   465 1
  453   469   468 1
  454   471   470 1
  455   472   471 1
  456   473   471 1
  457   474   471 1
  458   475   474 1
  459   477   476 1
  460   478   477 1
  461   479   477 1
  462   480   477 1
  463   481   480 1
  464   483   482 1
  465   484   483 1
  466   485   483 1
  467   486   483 1
  468   487   486 1
  469   489   488 1
  470   490   489 1
  471   491   489 1
  472   492   489 1
  473   493   492 1
  474   495   494 1
  475   496   495 1
  476   497   495 1
  477   498   495 1
  478   499   498 1
  479   501   500 1
  480   502   501 1
  481   503   501 1
  482   504   501 1
  483   505   504 1
  484   507   506 1
  485   508   507 1
  486   509   507 1
  487   510   507 1
  488   511   510 1
  489   513   512 1
  490   514   513 1
  491   515   513 1
  492   516   513 1
  493   517   516 1
  494   519   518 1
  495   520   519 1
  496   521   519 1
  497   522   519 1
  498   523   522 1
  499   525   524 1
  500   526   525 1
  501   527   525 1
  502   528   525 1
  503   529   528 1
  504   531   530 1
  505   532   531 1
  506   533   531 1
  507   534   531 1
  508   535   534 1
  509   537   536 1
  510   538   537 1
  511   539   537 1
  512   540   537 1
  513   541   540 1
  514   543   542 1
  515   544   543 1
  516   545   543 1
  517   546   543 1
  518   547   546 1
  519   549   548 1
  520   550   549 1
  521   551   549 1
  522   552   549 1
  523   553   552 1
  524   555   554 1
  525   556   555 1
  526   557   555 1
  527   558   555 1
  528   559   558 1
  529   561   560 1
  530   562   561 1
  531   563   561 1
  532   564   561 1
  533   565   564 1
  534   567   566 1
  535   568   567 1
  536   569   567 1
  537   570   567 1
  538   571   570 1
  539   573   572 1
  540   574   573 1
  541   575   573 1
  542   576   573 1
  543   577   576 1
  544   579   578 1
  545   580   579 1
  546   581   579 1
  547   582   579 1
  548   583   582 1
  549   585   584 1
  550   586   585 1
  551   587   585 1
  552   588   585 1
  553   589   588 1
  554   591   590 1
  555   592   591 1
  556   593   591 1
  557   594   591 1
  558   595   594 1
  559   597   596 1
  560   598   597 1
  561   599   597 1
  562   600   597 1
  563   601   600 1
  564   603   602 1
  565   604   603 1
  566   605   603 1
  567   606   603 1
  568   607   606 1
  569   609   608 1
  570   610   609 1
  571   611   609 1
  572   612   609 1
  573   613   612 1
  574   615   614 1
  575   616   615 1
  576   617   615 1
  577   618   615 1
  578   619   618 1
  579   621   620 1
  580   622   621 1
  581   623   621 1
  582   624   621 1
  583   625   624 1
  584   627   626 1
  585   628   627 1
  586   629   627 1
  587   630   627 1
  588   631   630 1
  589   633   632 1
  590   634   633 1
  591   635   633 1
  592   636   633 1
  593   637   636 1
  594   639   638 1
  595   640   639 1
  596   641   639 1
  597   642   639 1
  598   643   642 1
  599   645   644 1
  600   646   645 1
  601   647   645 1
  602   648   645 1
  603   649   648 1
  604   651   650 1
  605   652   651 1
  606   653   651 1
  607   654   651 1
  608   655   654 1
  609   657   656 1
  610   658   657 1
  611   659   657 1
  612   660   657 1
  613   661   660 1
  614   663   662 1
  615   664   663 1
  616   665   663 1
  617   666   663 1
  618   667   666 1
  619   669   668 1
  620   670   669 1
  621   671   669 1
  622   672   669 1
  623   673   672 1
  624   675   674 1
  625   676   675 1
  626   677   675 1
  627   678   675 1
  628   679   678 1
  629   681   680 1
  630   682   681 1
  631   683   681 1
  632   684   681 1
  633   685   684 1
  634   687   686 1
  635   688   687 1
  636   689   687 1
  637   690   687 1
  638   691   690 1
  639   693   692 1
  640   694   693 1
  641   695   693 1
  642   696   693 1
  643   697   696 1
  644   699   698 1
  645   700   699 1
  646   701   699 1
  647   702   699 1
  648   703   702 1
  649   705   704 1
  650   706   705 1
  651   707   705 1
  652   708   705 1
  653   709   708 1
  654   711   710 1
  655   712   711 1
  656   713   711 1
  657   714   711 1
  658   715   714 1
  659   717   716 1
  660   718   717 1
  661   719   717 1
  662   720   717 1
  663   721   720 1
  664   723   722 1
  665   724   723 1
  666   725   723 1
  667   726   723 1
  668   727   726 1
  669   729   728 1
  670   730   729 1
  671   731   729 1
  672   732   729 1
  673   733   732 1
  674   735   734 1
  675   736   735 1
  676   737   735 1
  677   738   735 1
  678   739   738 1
  679   741   740 1
  680   742   741 1
  681   743   741 1
  682   744   741 1
  683   745   744 1
  684   747   746 1
  685   748   747 1
  686   749   747 1
  687   750   747 1
  688   751   750 1
  689   753   752 1
  690   754   753 1
  691   755   753 1
  692   756   753 1
  693   757   756 1
  694   759   758 1
  695   760   759 1
  696   761   759 1
  697   762   759 1
  698   763   762 1
  699   765   764 1
  700   766   765 1
  701   767   765 1
  702   768   765 1
  703   769   768 1
  704   771   770 1
  705   772   771 1
  706   773   771 1
  707   774   771 1
  708   775   774 1
  709   777   776 1
  710   778   777 1
  711   779   777 1
  712   780   777 1
  713   781   780 1
  714   783   782 1
  715   784   783 1
  716   785   783 1
  717   786   783 1
  718   787   786 1
  719   789   788 1
  720   790   789 1
  721   791   789 1
  722   792   789 1
  723   793   792 1
  724   795   794 1
  725   796   795 1
  726   797   795 1
  727   798   795 1
  728   799   798 1
  729   801   800 1
  730   802   801 1
  731   803   801 1
  732   804   801 1
  733   805   804 1
  734   807   806 1
  735   808   807 1
  736   809   807 1
  737   810   807 1
  738   811   810 1
  739   813   812 1
  740   814   813 1
  741   815   813 1
  742   816   813 1
  743   817   816 1
  744   819   818 1
  745   820   819 1
  746   821   819 1
  747   822   819 1
  748   823   822 1
  749   825   824 1
  750   826   825 1
  751   827   825 1
  752   828   825 1
  753   829   828 1
  754   831   830 1
  755   832   831 1
  756   833   831 1
  757   834   831 1
  758   835   834 1
  759   837   836 1
  760   838   837 1
  761   839   837 1
  762   840   837 1
  763   841   840 1
  764   843   842 1
  765   844   843 1
  766   845   843 1
  767   846   843 1
  768   847   846 1
  769   849   848 1
  770   850   849 1
  771   851   849 1
  772   852   849 1
  773   853   852 1
  774   855   854 1
  775   856   855 1
  776   857   855 1
  777   858   855 1
  778   859   858 1
  779   861   860 1
  780   862   861 1
  781   863   861 1
  782   864   861 1
  783   865   864 1
  784   867   866 1
  785   868   867 1
  786   869   867 1
  787   870   867 1
  788   871   870 1
  789   873   872 1
  790   874   873 1
  791   875   873 1
  792   876   873 1
  793   877   876 1
  794   879   878 1
  795   880   879 1
  796   881   879 1
  797   882   879 1
  798   883   882 1
  799   885   884 1
  800   886   885 1
  801   887   885 1
  802   888   885 1
  803   889   888 1
  804   891   890 1
  805   892   891 1
  806   893   891 1
  807   894   891 1
  808   895   894 1
  809   897   896 1
  810   898   897 1
  811   899   897 1
  812   900   897 1
  813   901   900 1
  814   903   902 1
  815   904   903 1
  816   905   903 1
  817   906   903 1
  818   907   906 1
  819   909   908 1
  820   910   909 1
  821   911   909 1
  822   912   909 1
  823   913   912 1
  824   915   914 1
  825   916   915 1
  826   917   915 1
  827   918   915 1
  828   919   918 1
  829   921   920 1
  830   922   921 1
  831   923   921 1
  832   924   921 1
  833   925   924 1
  834   927   926 1
  835   928   927 1
  836   929   927 1
  837   930   927 1
  838   931   930 1
  839   933   932 1
  840   934   933 1
  841   935   933 1
  842   936   933 1
  843   937   936 1
  844   939   938 1
  845   940   939 1
  846   941   939 1
  847   942   939 1
  848   943   942 1
  849   945   944 1
  850   946   945 1
  851   947   945 1
  852   948   945 1
  853   949   948 1
  854   951   950 1
  855   952   951 1
  856   953   951 1
  857   954   951 1
  858   955   954 1
  859   957   956 1
  860   958   957 1
  861   959   957 1
  862   960   957 1
  863   961   960 1
  864   963   962 1
  865   964   963 1
  866   965   963 1
  867   966   963 1
  868   967   966 1
  869   969   968 1
  870   970   969 1
  871   971   969 1
  872   972   969 1
  873   973   972 1
  874   975   974 1
  875   976   975 1
  876   977   975 1
  877   978   975 1
  878   979   978 1
  879   981   980 1
  880   982   981 1
  881   983   981 1
  882   984   981 1
  883   985   984 1
  884   987   986 1
  885   988   987 1
  886   989   987 1
  887   990   987 1
  888   991   990 1
  889   993   992 1
  890   994   993 1
  891   995   993 1
  892   996   993 1
  893   997   996 1
  894   999   998 1
  895  1000   999 1
  896  1001   999 1
  897  1002   999 1
  898  1003  1002 1
  899  1005  1004 1
  900  1006  1005 1
  901  1007  1005 1
  902  1008  1005 1
  903  1009  1008 1
  904  1011  1010 1
  905  1012  1011 1
  906  1013  1011 1
  907  1014  1011 1
  908  1015  1014 1
  909  1017  1016 1
  910  1018  1017 1
  911  1019  1017 1
  912  1020  1017 1
  913  1021  1020 1
  914  1023  1022 1
  915  1024  1023 1
  916  1025  1023 1
  917  1026  1023 1
  918  1027  1026 1
  919  1029  1028 1
  920  1030  1029 1
  921  1031  1029 1
  922  1032  1029 1
  923  1033  1032 1
  924  1035  1034 1
  925  1036  1035 1
  926  1037  1035 1
  927  1038  1035 1
  928  1039  1038 1
  929  1041  1040 1
  930  1042  1041 1
  931  1043  1041 1
  932  1044  1041 1
  933  1045  1044 1
  934  1047  1046 1
  935  1048  1047 1
  936  1049  1047 1
  937  1050  1047 1
  938  1051  1050 1
  939  1053  1052 1
  940  1054  1053 1
  941  1055  1053 1
  942  1056  1053 1
  943  1057  1056 1
  944  1059  1058 1
  945  1060  1059 1
  946  1061  1059 1
  947  1062  1059 1
  948  1063  1062 1
  949  1065  1064 1
  950  1066  1065 1
  951  1067  1065 1
  952  1068  1065 1
  953  1069  1068 1
  954  1071  1070 1
  955  1072  1071 1
  956  1073  1071 1
  957  1074  1071 1
  958  1075  1074 1
  959  1077  1076 1
  960  1078  1077 1
  961  1079  1077 1
  962  1080  1077 1
  963  1081  1080 1
  964  1083  1082 1
  965  1084  1083 1
  966  1085  1083 1
  967  1086  1083 1
  968  1087  1086 1
  969  1089  1088 1
  970  1090  1089 1
  971  1091  1089 1
  972  1092  1089 1
  973  1093  1092 1
  974  1095  1094 1
  975  1096  1095 1
  976  1097  1095 1
  977  1098  1095 1
  978  1099  1098 1
  979  1101  1100 1
  980  1102  1101 1
  981  1103  1101 1
  982  1104  1101 1
  983  1105  1104 1
  984  1107  1106 1
  985  1108  1107 1
  986  1109  1107 1
  987  1110  1107 1
  988  1111  1110 1
  989  1113  1112 1
  990  1114  1113 1
  991  1115  1113 1
  992  1116  1113 1
  993  1117  1116 1
  994  1119  1118 1
  995  1120  1119 1
  996  1121  1119 1
  997  1122  1119 1
  998  1123  1122 1
  999  1125  1124 1
 1000  1126  1125 1
 1001  1127  1125 1
 1002  1128  1125 1
 1003  1129  1128 1
 1004  1131  1130 1
 1005  1132  1131 1
 1006  1133  1131 1
 1007  1134  1131 1
 1008  1135  1134 1
 1009  1137  1136 1
 1010  1138  1137 1
 1011  1139  1137 1
 1012  1140  1137 1
 1013  1141  1140 1
 1014  1143  1142 1
 1015  1144  1143 1
 1016  1145  1143 1
 1017  1146  1143 1
 1018  1147  1146 1
 1019  1149  1148 1
 1020  1150  1149 1
 1021  1151  1149 1
 1022  1152  1149 1
 1023  1153  1152 1
 1024  1155  1154 1
 1025  1156  1155 1
 1026  1157  1155 1
 1027  1158  1155 1
 1028  1159  1158 1
 1029  1161  1160 1
 1030  1162  1161 1
 1031  1163  1161 1
 1032  1164  1161 1
 1033  1165  1164 1
 1034  1167  1166 1
 1035  1168  1167 1
 1036  1169  1167 1
 1037  1170  1167 1
 1038  1171  1170 1
 1039  1173  1172 1
 1040  1174  1173 1
 1041  1175  1173 1
 1042  1176  1173 1
 1043  1177  1176 1
 1044  1179  1178 1
 1045  1180  1179 1
 1046  1181  1179 1
 1047  1182  1179 1
 1048  1183  1182 1
 1049  1185  1184 1
 1050  1186  1185 1
 1051  1187  1185 1
 1052  1188  1185 1
 1053  1189  1188 1
 1054  1191  1190 1
 1055  1192  1191 1
 1056  1193  1191 1
 1057  1194  1191 1
 1058  1195  1194 1
 1059  1197  1196 1
 1060  1198  1197 1
 1061  1199  1197 1
 1062  1200  1197 1
 1063  1201  1200 1
 1064  1203  1202 1
 1065  1204  1203 1
 1066  1205  1203 1
 1067  1206  1203 1
 1068  1207  1206 1
 1069  1209  1208 1
 1070  1210  1209 1
 1071  1211  1209 1
 1072  1212  1209 1
 1073  1213  1212 1
 1074  1215  1214 1
 1075  1216  1215 1
 1076  1217  1215 1
 1077  1218  1215 1
 1078  1219  1218 1
 1079  1221  1220 1
 1080  1222  1221 1
 1081  1223  1221 1
 1082  1224  1221 1
 1083  1225  1224 1
 1084  1227  1226 1
 1085  1228  1227 1
 1086  1229  1227 1
 1087  1230  1227 1
 1088  1231  1230 1
 1089  1233  1232 1
 1090  1234  1233 1
 1091  1235  1233 1
 1092  1236  1233 1
 1093  1237  1236 1
 1094  1239  1238 1
 1095  1240  1239 1
 1096  1241  1239 1
 1097  1242  1239 1
 1098  1243  1242 1
 1099  1245  1244 1
 1100  1246  1245 1
 1101  1247  1245 1
 1102  1248  1245 1
 1103  1249  1248 1
 1104  1251  1250 1
 1105  1252  1251 1
 1106  1253  1251 1
 1107  1254  1251 1
 1108  1255  1254 1
 1109  1257  1256 1
 1110  1258  1257 1
 1111  1259  1257 1
 1112  1260  1257 1
 1113  1261  1260 1
 1114  1263  1262 1
 1115  1264  1263 1
 1116  1265  1263 1
 1117  1266  1263 1
 1118  1267  1266 1
 1119  1269  1268 1
 1120  1270  1269 1
 1121  1271  1269 1
 1122  1272  1269 1
 1123  1273  1272 1
 1124  1275  1274 1
 1125  1276  1275 1
 1126  1277  1275 1
 1127  1278  1275 1
 1128  1279  1278 1
 1129  1281  1280 1
 1130  1282  1281 1
 1131  1283  1281 1
 1132  1284  1281 1
 1133  1285  1284 1
 1134  1287  1286 1
 1135  1288  1287 1
 1136  1289  1287 1
 1137  1290  1287 1
 1138  1291  1290 1
 1139  1293  1292 1
 1140  1294  1293 1
 1141  1295  1293 1
 1142  1296  1293 1
 1143  1297  1296 1
 1144  1299  1298 1
 1145  1300  1299 1
 1146  1301  1299 1
 1147  1302  1299 1
 1148  1303  1302 1
 1149  1305  1304 1
 1150  1306  1305 1
 1151  1307  1305 1
 1152  1308  1305 1
 1153  1309  1308 1
 1154  1311  1310 1
 1155  1312  1311 1
 1156  1313  1311 1
 1157  1314  1311 1
 1158  1315  1314 1
 1159  1317  1316 1
 1160  1318  1317 1
 1161  1319  1317 1
 1162  1320  1317 1
 1163  1321  1320 1
 1164  1323  1322 1
 1165  1324  1323 1
 1166  1325  1323 1
 1167  1326  1323 1
 1168  1327  1326 1
 1169  1329  1328 1
 1170  1330  1329 1
 1171  1331  1329 1
 1172  1332  1329 1
 1173  1333  1332 1
 1174  1335  1334 1
 1175  1336  1335 1
 1176  1337  1335 1
 1177  1338  1335 1
 1178  1339  1338 1
 1179  1341  1340 1
 1180  1342  1341 1
 1181  1343  1341 1
 1182  1344  1341 1
 1183  1345  1344 1
 1184  1347  1346 1
 1185  1348  1347 1
 1186  1349  1347 1
 1187  1350  1347 1
 1188  1351  1350 1
 1189  1353  1352 1
 1190  1354  1353 1
 1191  1355  1353 1
 1192  1356  1353 1
 1193  1357  1356 1
 1194  1359  1358 1
 1195  1360  1359 1
 1196  1361  1359 1
 1197  1362  1359 1
 1198  1363  1362 1
 1199  1365  1364 1
 1200  1366  1365 1
 1201  1367  1365 1
 1202  1368  1365 1
 1203  1369  1368 1
 1204  1371  1370 1
 1205  1372  1371 1
 1206  1373  1371 1
 1207  1374  1371 1
 1208  1375  1374 1
 1209  1377  1376 1
 1210  1378  1377 1
 1211  1379  1377 1
 1212  1380  1377 1
 1213  1381  1380 1
 1214  1383  1382 1
 1215  1384  1383 1
 1216  1385  1383 1
 1217  1386  1383 1
 1218  1387  1386 1
 1219  1389  1388 1
 1220  1390  1389 1
 1221  1391  1389 1
 1222  1392  1389 1
 1223  1393  1392 1
 1224  1395  1394 1
 1225  1396  1395 1
 1226  1397  1395 1
 1227  1398  1395 1
 1228  1399  1398 1
 1229  1401  1400 1
 1230  1402  1401 1
 1231  1403  1401 1
 1232  1404  1401 1
 1233  1405  1404 1
 1234  1407  1406 1
 1235  1408  1407 1
 1236  1409  1407 1
 1237  1410  1407 1
 1238  1411  1410 1
 1239  1413  1412 1
 1240  1414  1413 1
 1241  1415  1413 1
 1242  1416  1413 1
 1243  1417  1416 1
 1244  1419  1418 1
 1245  1420  1419 1
 1246  1421  1419 1
 1247  1422  1419 1
 1248  1423  1422 1
 1249  1425  1424 1
 1250  1426  1425 1
 1251  1427  1425 1
 1252  1428  1425 1
 1253  1429  1428 1
 1254  1431  1430 1
 1255  1432  1431 1
 1256  1433  1431 1
 1257  1434  1431 1
 1258  1435  1434 1
 1259  1437  1436 1
 1260  1438  1437 1
 1261  1439  1437 1
 1262  1440  1437 1
 1263  1441  1440 1
 1264  1443  1442 1
 1265  1444  1443 1
 1266  1445  1443 1
 1267  1446  1443 1
 1268  1447  1446 1
 1269  1449  1448 1
 1270  1450  1449 1
 1271  1451  1449 1
 1272  1452  1449 1
 1273  1453  1452 1
 1274  1455  1454 1
 1275  1456  1455 1
 1276  1457  1455 1
 1277  1458  1455 1
 1278  1459  1458 1
 1279  1461  1460 1
 1280  1462  1461 1
 1281  1463  1461 1
 1282  1464  1461 1
 1283  1465  1464 1
 1284  1467  1466 1
 1285  1468  1467 1
 1286  1469  1467 1
 1287  1470  1467 1
 1288  1471  1470 1
 1289  1473  1472 1
 1290  1474  1473 1
 1291  1475  1473 1
 1292  1476  1473 1
 1293  1477  1476 1
 1294  1479  1478 1
 1295  1480  1479 1
 1296  1481  1479 1
 1297  1482  1479 1
 1298  1483  1482 1
 1299  1485  1484 1
 1300  1486  1485 1
 1301  1487  1485 1
 1302  1488  1485 1
 1303  1489  1488 1
 1304  1491  1490 1
 1305  1492  1491 1
 1306  1493  1491 1
 1307  1494  1491 1
 1308  1495  1494 1
 1309  1497  1496 1
 1310  1498  1497 1
 1311  1499  1497 1
 1312  1500  1497 1
 1313  1501  1500 1
 1314  1503  1502 1
 1315  1504  1503 1
 1316  1505  1503 1
 1317  1506  1503 1
 1318  1507  1506 1
 1319  1509  1508 1
 1320  1510  1509 1
 1321  1511  1509 1
 1322  1512  1509 1
 1323  1513  1512 1
 1324  1515  1514 1
 1325  1516  1515 1
 1326  1517  1515 1
 1327  1518  1515 1
 1328  1519  1518 1
 1329  1521  1520 1
 1330  1522  1521 1
 1331  1523  1521 1
 1332  1524  1521 1
 1333  1525  1524 1
 1334  1527  1526 1
 1335  1528  1527 1
 1336  1529  1527 1
 1337  1530  1527 1
 1338  1531  1530 1
 1339  1533  1532 1
 1340  1534  1533 1
 1341  1535  1533 1
 1342  1536  1533 1
 1343  1537  1536 1
 1344  1539  1538 1
 1345  1540  1539 1
 1346  1541  1539 1
 1347  1542  1539 1
 1348  1543  1542 1
 1349  1545  1544 1
 1350  1546  1545 1
 1351  1547  1545 1
 1352  1548  1545 1
 1353  1549  1548 1
 1354  1551  1550 1
 1355  1552  1551 1
 1356  1553  1551 1
 1357  1554  1551 1
 1358  1555  1554 1
 1359  1557  1556 1
 1360  1558  1557 1
 1361  1559  1557 1
 1362  1560  1557 1
 1363  1561  1560 1
 1364  1563  1562 1
 1365  1564  1563 1
 1366  1565  1563 1
 1367  1566  1563 1
 1368  1567  1566 1
 1369  1569  1568 1
 1370  1570  1569 1
 1371  1571  1569 1
 1372  1572  1569 1
 1373  1573  1572 1
 1374  1575  1574 1
 1375  1576  1575 1
 1376  1577  1575 1
 1377  1578  1575 1
 1378  1579  1578 1
 1379  1581  1580 1
 1380  1582  1581 1
 1381  1583  1581 1
 1382  1584  1581 1
 1383  1585  1584 1
 1384  1587  1586 1
 1385  1588  1587 1
 1386  1589  1587 1
 1387  1590  1587 1
 1388  1591  1590 1
 1389  1593  1592 1
 1390  1594  1593 1
 1391  1595  1593 1
 1392  1596  1593 1
 1393  1597  1596 1
 1394  1599  1598 1
 1395  1600  1599 1
 1396  1601  1599 1
 1397  1602  1599 1
 1398  1603  1602 1
 1399  1605  1604 1
 1400  1606  1605 1
 1401  1607  1605 1
 1402  1608  1605 1
 1403  1609  1608 1
 1404  1611  1610 1
 1405  1612  1611 1
 1406  1613  1611 1
 1407  1614  1611 1
 1408  1615  1614 1
 1409  1617  1616 1
 1410  1618  1617 1
 1411  1619  1617 1
 1412  1620  1617 1
 1413  1621  1620 1
 1414  1623  1622 1
 1415  1624  1623 1
 1416  1625  1623 1
 1417  1626  1623 1
 1418  1627  1626 1
 1419  1629  1628 1
 1420  1630  1629 1
 1421  1631  1629 1
 1422  1632  1629 1
 1423  1633  1632 1
 1424  1635  1634 1
 1425  1636  1635 1
 1426  1637  1635 1
 1427  1638  1635 1
 1428  1639  1638 1
 1429  1641  1640 1
 1430  1642  1641 1
 1431  1643  1641 1
 1432  1644  1641 1
 1433  1645  1644 1
 1434  1647  1646 1
 1435  1648  1647 1
 1436  1649  1647 1
 1437  1650  1647 1
 1438  1651  1650 1
 1439  1653  1652 1
 1440  1654  1653 1
 1441  1655  1653 1
 1442  1656  1653 1
 1443  1657  1656 1
 1444  1659  1658 1
 1445  1660  1659 1
 1446  1661  1659 1
 1447  1662  1659 1
 1448  1663  1662 1
 1449  1665  1664 1
 1450  1666  1665 1
 1451  1667  1665 1
 1452  1668  1665 1
 1453  1669  1668 1
 1454  1671  1670 1
 1455  1672  1671 1
 1456  1673  1671 1
 1457  1674  1671 1
 1458  1675  1674 1
 1459  1677  1676 1
 1460  1678  1677 1
 1461  1679  1677 1
 1462  1680  1677 1
 1463  1681  1680 1
 1464  1683  1682 1
 1465  1684  1683 1
 1466  1685  1683 1
 1467  1686  1683 1
 1468  1687  1686 1
 1469  1689  1688 1
 1470  1690  1689 1
 1471  1691  1689 1
 1472  1692  1689 1
 1473  1693  1692 1
 1474  1695  1694 1
 1475  1696  1695 1
 1476  1697  1695 1
 1477  1698  1695 1
 1478  1699  1698 1
 1479  1701  1700 1
 1480  1702  1701 1
 1481  1703  1701 1
 1482  1704  1701 1
 1483  1705  1704 1
 1484  1707  1706 1
 1485  1708  1707 1
 1486  1709  1707 1
 1487  1710  1707 1
 1488  1711  1710 1
 1489  1713  1712 1
 1490  1714  1713 1
 1491  1715  1713 1
 1492  1716  1713 1
 1493  1717  1716 1
 1494  1719  1718 1
 1495  1720  1719 1
 1496  1721  1719 1
 1497  1722  1719 1
 1498  1723  1722 1
 1499  1725  1724 1
 1500  1726  1725 1
 1501  1727  1725 1
 1502  1728  1725 1
 1503  1729  1728 1
 1504  1731  1730 1
 1505  1732  1731 1
 1506  1733  1731 1
 1507  1734  1731 1
 1508  1735  1734 1
 1509  1737  1736 1
 1510  1738  1737 1
 1511  1739  1737 1
 1512  1740  1737 1
 1513  1741  1740 1
 1514  1743  1742 1
 1515  1744  1743 1
 1516  1745  1743 1
 1517  1746  1743 1
 1518  1747  1746 1
 1519  1749  1748 1
 1520  1750  1749 1
 1521  1751  1749 1
 1522  1752  1749 1
 1523  1753  1752 1
 1524  1755  1754 1
 1525  1756  1755 1
 1526  1757  1755 1
 1527  1758  1755 1
 1528  1759  1758 1
 1529  1761  1760 1
 1530  1762  1761 1
 1531  1763  1761 1
 1532  1764  1761 1
 1533  1765  1764 1
 1534  1767  1766 1
 1535  1768  1767 1
 1536  1769  1767 1
 1537  1770  1767 1
 1538  1771  1770 1
 1539  1773  1772 1
 1540  1774  1773 1
 1541  1775  1773 1
 1542  1776  1773 1
 1543  1777  1776 1
 1544  1779  1778 1
 1545  1780  1779 1
 1546  1781  1779 1
 1547  1782  1779 1
 1548  1783  1782 1
 1549  1785  1784 1
 1550  1786  1785 1
 1551  1787  1785 1
 1552  1788  1785 1
 1553  1789  1788 1
 1554  1791  1790 1
 1555  1792  1791 1
 1556  1793  1791 1
 1557  1794  1791 1
 1558  1795  1794 1
 1559  1797  1796 1
 1560  1798  1797 1
 1561  1799  1797 1
 1562  1800  1797 1
 1563  1801  1800 1
 1564  1803  1802 1
 1565  1804  1803 1
 1566  1805  1803 1
 1567  1806  1803 1
 1568  1807  1806 1
 1569  1809  1808 1
 1570  1810  1809 1
 1571  1811  1809 1
 1572  1812  1809 1
 1573  1813  1812 1
 1574  1815  1814 1
 1575  1816  1815 1
 1576  1817  1815 1
 1577  1818  1815 1
 1578  1819  1818 1
 1579  1821  1820 1
 1580  1822  1821 1
 1581  1823  1821 1
 1582  1824  1821 1
 1583  1825  1824 1
 1584  1827  1826 1
 1585  1828  1827 1
 1586  1829  1827 1
 1587  1830  1827 1
 1588  1831  1830 1
 1589  1833  1832 1
 1590  1834  1833 1
 1591  1835  1833 1
 1592  1836  1833 1
 1593  1837  1836 1
 1594  1839  1838 1
 1595  1840  1839 1
 1596  1841  1839 1
 1597  1842  1839 1
 1598  1843  1842 1
 1599  1845  1844 1
 1600  1846  1845 1
 1601  1847  1845 1
 1602  1848  1845 1
 1603  1849  1848 1
 1604  1851  1850 1
 1605  1852  1851 1
 1606  1853  1851 1
 1607  1854  1851 1
 1608  1855  1854 1
 1609  1857  1856 1
 1610  1858  1857 1
 1611  1859  1857 1
 1612  1860  1857 1
 1613  1861  1860 1
 1614  1863  1862 1
 1615  1864  1863 1
 1616  1865  1863 1
 1617  1866  1863 1
 1618  1867  1866 1
 1619  1869  1868 1
 1620  1870  1869 1
 1621  1871  1869 1
 1622  1872  1869 1
 1623  1873  1872 1
 1624  1875  1874 1
 1625  1876  1875 1
 1626  1877  1875 1
 1627  1878  1875 1
 1628  1879  1878 1
 1629  1881  1880 1
 1630  1882  1881 1
 1631  1883  1881 1
 1632  1884  1881 1
 1633  1885  1884 1
 1634  1887  1886 1
 1635  1888  1887 1
 1636  1889  1887 1
 1637  1890  1887 1
 1638  1891  1890 1
 1639  1893  1892 1
 1640  1894  1893 1
 1641  1895  1893 1
 1642  1896  1893 1
 1643  1897  1896 1
 1644  1899  1898 1
 1645  1900  1899 1
 1646  1901  1899 1
 1647  1902  1899 1
 1648  1903  1902 1
 1649  1905  1904 1
 1650  1906  1905 1
 1651  1907  1905 1
 1652  1908  1905 1
 1653  1909  1908 1
 1654  1911  1910 1
 1655  1912  1911 1
 1656  1913  1911 1
 1657  1914  1911 1
 1658  1915  1914 1
 1659  1917  1916 1
 1660  1918  1917 1
 1661  1919  1917 1
 1662  1920  1917 1
 1663  1921  1920 1
 1664  1923  1922 1
 1665  1924  1923 1
 1666  1925  1923 1
 1667  1926  1923 1
 1668  1927  1926 1
 1669  1929  1928 1
 1670  1930  1929 1
 1671  1931  1929 1
 1672  1932  1929 1
 1673  1933  1932 1
 1674  1935  1934 1
 1675  1936  1935 1
 1676  1937  1935 1
 1677  1938  1935 1
 1678  1939  1938 1
 1679  1941  1940 1
 1680  1942  1941 1
 1681  1943  1941 1
 1682  1944  1941 1
 1683  1945  1944 1
 1684  1947  1946 1
 1685  1948  1947 1
 1686  1949  1947 1
 1687  1950  1947 1
 1688  1951  1950 1
 1689  1953  1952 1
 1690  1954  1953 1
 1691  1955  1953 1
 1692  1956  1953 1
 1693  1957  1956 1
 1694  1959  1958 1
 1695  1960  1959 1
 1696  1961  1959 1
 1697  1962  1959 1
 1698  1963  1962 1
 1699  1965  1964 1
 1700  1966  1965 1
 1701  1967  1965 1
 1702  1968  1965 1
 1703  1969  1968 1
 1704  1971  1970 1
 1705  1972  1971 1
 1706  1973  1971 1
 1707  1974  1971 1
 1708  1975  1974 1
 1709  1977  1976 1
 1710  1978  1977 1
 1711  1979  1977 1
 1712  1980  1977 1
 1713  1981  1980 1
 1714  1983  1982 1
 1715  1984  1983 1
 1716  1985  1983 1
 1717  1986  1983 1
 1718  1987  1986 1
 1719  1989  1988 1
 1720  1990  1989 1
 1721  1991  1989 1
 1722  1992  1989 1
 1723  1993  1992 1
 1724  1995  1994 1
 1725  1996  1995 1
 1726  1997  1995 1
 1727  1998  1995 1
 1728  1999  1998 1
 1729  2001  2000 1
 1730  2002  2001 1
 1731  2003  2001 1
 1732  2004  2001 1
 1733  2005  2004 1
 1734  2007  2006 1
 1735  2008  2007 1
 1736  2009  2007 1
 1737  2010  2007 1
 1738  2011  2010 1
 1739  2013  2012 1
 1740  2014  2013 1
 1741  2015  2013 1
 1742  2016  2013 1
 1743  2017  2016 1
 1744  2019  2018 1
 1745  2020  2019 1
 1746  2021  2019 1
 1747  2022  2019 1
 1748  2023  2022 1
 1749  2025  2024 1
 1750  2026  2025 1
 1751  2027  2025 1
 1752  2028  2025 1
 1753  2029  2028 1
 1754  2031  2030 1
 1755  2032  2031 1
 1756  2033  2031 1
 1757  2034  2031 1
 1758  2035  2034 1
 1759  2037  2036 1
 1760  2038  2037 1
 1761  2039  2037 1
 1762  2040  2037 1
 1763  2041  2040 1
 1764  2043  2042 1
 1765  2044  2043 1
 1766  2045  2043 1
 1767  2046  2043 1
 1768  2047  2046 1
 1769  2049  2048 1
 1770  2050  2049 1
 1771  2051  2049 1
 1772  2052  2049 1
 1773  2053  2052 1
 1774  2055  2054 1
 1775  2056  2055 1
 1776  2057  2055 1
 1777  2058  2055 1
 1778  2059  2058 1
 1779  2061  2060 1
 1780  2062  2061 1
 1781  2063  2061 1
 1782  2064  2061 1
 1783  2065  2064 1
 1784  2067  2066 1
 1785  2068  2067 1
 1786  2069  2067 1
 1787  2070  2067 1
 1788  2071  2070 1
 1789  2073  2072 1
 1790  2074  2073 1
 1791  2075  2073 1
 1792  2076  2073 1
 1793  2077  2076 1
 1794  2079  2078 1
 1795  2080  2079 1
 1796  2081  2079 1
 1797  2082  2079 1
 1798  2083  2082 1
 1799  2085  2084 1
 1800  2086  2085 1
 1801  2087  2085 1
 1802  2088  2085 1
 1803  2089  2088 1
 1804  2091  2090 1
 1805  2092  2091 1
 1806  2093  2091 1
 1807  2094  2091 1
 1808  2095  2094 1
 1809  2097  2096 1
 1810  2098  2097 1
 1811  2099  2097 1
 1812  2100  2097 1
 1813  2101  2100 1
 1814  2103  2102 1
 1815  2104  2103 1
 1816  2105  2103 1
 1817  2106  2103 1
 1818  2107  2106 1
 1819  2109  2108 1
 1820  2110  2109 1
 1821  2111  2109 1
 1822  2112  2109 1
 1823  2113  2112 1
 1824  2115  2114 1
 1825  2116  2115 1
 1826  2117  2115 1
 1827  2118  2115 1
 1828  2119  2118 1
 1829  2121  2120 1
 1830  2122  2121 1
 1831  2123  2121 1
 1832  2124  2121 1
 1833  2125  2124 1
 1834  2127  2126 1
 1835  2128  2127 1
 1836  2129  2127 1
 1837  2130  2127 1
 1838  2131  2130 1
 1839  2133  2132 1
 1840  2134  2133 1
 1841  2135  2133 1
 1842  2136  2133 1
 1843  2137  2136 1
 1844  2139  2138 1
 1845  2140  2139 1
 1846  2141  2139 1
 1847  2142  2139 1
 1848  2143  2142 1
 1849  2145  2144 1
 1850  2146  2145 1
 1851  2147  2145 1
 1852  2148  2145 1
 1853  2149  2148 1
 1854  2151  2150 1
 1855  2152  2151 1
 1856  2153  2151 1
 1857  2154  2151 1
 1858  2155  2154 1
 1859  2157  2156 1
 1860  2158  2157 1
 1861  2159  2157 1
 1862  2160  2157 1
 1863  2161  2160 1
 1864  2163  2162 1
 1865  2164  2163 1
 1866  2165  2163 1
 1867  2166  2163 1
 1868  2167  2166 1
 1869  2169  2168 1
 1870  2170  2169 1
 1871  2171  2169 1
 1872  2172  2169 1
 1873  2173  2172 1
 1874  2175  2174 1
 1875  2176  2175 1
 1876  2177  2175 1
 1877  2178  2175 1
 1878  2179  2178 1
 1879  2181  2180 1
 1880  2182  2181 1
 1881  2183  2181 1
 1882  2184  2181 1
 1883  2185  2184 1
 1884  2187  2186 1
 1885  2188  2187 1
 1886  2189  2187 1
 1887  2190  2187 1
 1888  2191  2190 1
 1889  2193  2192 1
 1890  2194  2193 1
 1891  2195  2193 1
 1892  2196  2193 1
 1893  2197  2196 1
 1894  2199  2198 1
 1895  2200  2199 1
 1896  2201  2199 1
 1897  2202  2199 1
 1898  2203  2202 1
 1899  2205  2204 1
 1900  2206  2205 1
 1901  2207  2205 1
 1902  2208  2205 1
 1903  2209  2208 1
 1904  2211  2210 1
 1905  2212  2211 1
 1906  2213  2211 1
 1907  2214  2211 1
 1908  2215  2214 1
 1909  2217  2216 1
 1910  2218  2217 1
 1911  2219  2217 1
 1912  2220  2217 1
 1913  2221  2220 1
 1914  2223  2222 1
 1915  2224  2223 1
 1916  2225  2223 1
 1917  2226  2223 1
 1918  2227  2226 1
 1919  2229  2228 1
 1920  2230  2229 1
 1921  2231  2229 1
 1922  2232  2229 1
 1923  2233  2232 1
 1924  2235  2234 1
 1925  2236  2235 1
 1926  2237  2235 1
 1927  2238  2235 1
 1928  2239  2238 1
 1929  2241  2240 1
 1930  2242  2241 1
 1931  2243  2241 1
 1932  2244  2241 1
 1933  2245  2244 1
 1934  2247  2246 1
 1935  2248  2247 1
 1936  2249  2247 1
 1937  2250  2247 1
 1938  2251  2250 1
 1939  2253  2252 1
 1940  2254  2253 1
 1941  2255  2253 1
 1942  2256  2253 1
 1943  2257  2256 1
 1944  2259  2258 1
 1945  2260  2259 1
 1946  2261  2259 1
 1947  2262  2259 1
 1948  2263  2262 1
 1949  2265  2264 1
 1950  2266  2265 1
 1951  2267  2265 1
 1952  2268  2265 1
 1953  2269  2268 1
 1954  2271  2270 1
 1955  2272  2271 1
 1956  2273  2271 1
 1957  2274  2271 1
 1958  2275  2274 1
 1959  2277  2276 1
 1960  2278  2277 1
 1961  2279  2277 1
 1962  2280  2277 1
 1963  2281  2280 1
 1964  2283  2282 1
 1965  2284  2283 1
 1966  2285  2283 1
 1967  2286  2283 1
 1968  2287  2286 1
 1969  2289  2288 1
 1970  2290  2289 1
 1971  2291  2289 1
 1972  2292  2289 1
 1973  2293  2292 1
 1974  2295  2294 1
 1975  2296  2295 1
 1976  2297  2295 1
 1977  2298  2295 1
 1978  2299  2298 1
 1979  2301  2300 1
 1980  2302  2301 1
 1981  2303  2301 1
 1982  2304  2301 1
 1983  2305  2304 1
 1984  2307  2306 1
 1985  2308  2307 1
 1986  2309  2307 1
 1987  2310  2307 1
 1988  2311  2310 1
 1989  2313  2312 1
 1990  2314  2313 1
 1991  2315  2313 1
 1992  2316  2313 1
 1993  2317  2316 1
 1994  2319  2318 1
 1995  2320  2319 1
 1996  2321  2319 1
 1997  2322  2319 1
 1998  2323  2322 1
 1999  2325  2324 1
 2000  2326  2325 1
 2001  2327  2325 1
 2002  2328  2325 1
 2003  2329  2328 1
 2004  2331  2330 1
 2005  2332  2331 1
 2006  2333  2331 1
 2007  2334  2331 1
 2008  2335  2334 1
 2009  2337  2336 1
 2010  2338  2337 1
 2011  2339  2337 1
 2012  2340  2337 1
 2013  2341  2340 1
 2014  2343  2342 1
 2015  2344  2343 1
 2016  2345  2343 1
 2017  2346  2343 1
 2018  2347  2346 1
 2019  2349  2348 1
 2020  2350  2349 1
 2021  2351  2349 1
 2022  2352  2349 1
 2023  2353  2352 1
 2024  2355  2354 1
 2025  2356  2355 1
 2026  2357  2355 1
 2027  2358  2355 1
 2028  2359  2358 1
 2029  2361  2360 1
 2030  2362  2361 1
 2031  2363  2361 1
 2032  2364  2361 1
 2033  2365  2364 1
 2034  2367  2366 1
 2035  2368  2367 1
 2036  2369  2367 1
 2037  2370  2367 1
 2038  2371  2370 1
 2039  2373  2372 1
 2040  2374  2373 1
 2041  2375  2373 1
 2042  2376  2373 1
 2043  2377  2376 1
 2044  2379  2378 1
 2045  2380  2379 1
 2046  2381  2379 1
 2047  2382  2379 1
 2048  2383  2382 1
 2049  2385  2384 1
 2050  2386  2385 1
 2051  2387  2385 1
 2052  2388  2385 1
 2053  2389  2388 1
 2054  2391  2390 1
 2055  2392  2391 1
 2056  2393  2391 1
 2057  2394  2391 1
 2058  2395  2394 1
 2059  2397  2396 1
 2060  2398  2397 1
 2061  2399  2397 1
 2062  2400  2397 1
 2063  2401  2400 1
 2064  2403  2402 1
 2065  2404  2403 1
 2066  2405  2403 1
 2067  2406  2403 1
 2068  2407  2406 1
 2069  2409  2408 1
 2070  2410  2409 1
 2071  2411  2409 1
 2072  2412  2409 1
 2073  2413  2412 1
 2074  2415  2414 1
 2075  2416  2415 1
 2076  2417  2415 1
 2077  2418  2415 1
 2078  2419  2418 1
 2079  2421  2420 1
 2080  2422  2421 1
 2081  2423  2421 1
 2082  2424  2421 1
 2083  2425  2424 1
 2084  2427  2426 1
 2085  2428  2427 1
 2086  2429  2427 1
 2087  2430  2427 1
 2088  2431  2430 1
 2089  2433  2432 1
 2090  2434  2433 1
 2091  2435  2433 1
 2092  2436  2433 1
 2093  2437  2436 1
 2094  2439  2438 1
 2095  2440  2439 1
 2096  2441  2439 1
 2097  2442  2439 1
 2098  2443  2442 1
 2099  2445  2444 1
 2100  2446  2445 1
 2101  2447  2445 1
 2102  2448  2445 1
 2103  2449  2448 1
 2104  2451  2450 1
 2105  2452  2451 1
 2106  2453  2451 1
 2107  2454  2451 1
 2108  2455  2454 1
 2109  2457  2456 1
 2110  2458  2457 1
 2111  2459  2457 1
 2112  2460  2457 1
 2113  2461  2460 1
 2114  2463  2462 1
 2115  2464  2463 1
 2116  2465  2463 1
 2117  2466  2463 1
 2118  2467  2466 1
 2119  2469  2468 1
 2120  2470  2469 1
 2121  2471  2469 1
 2122  2472  2469 1
 2123  2473  2472 1
 2124  2475  2474 1
 2125  2476  2475 1
 2126  2477  2475 1
 2127  2478  2475 1
 2128  2479  2478 1
 2129  2481  2480 1
 2130  2482  2481 1
 2131  2483  2481 1
 2132  2484  2481 1
 2133  2485  2484 1
 2134  2487  2486 1
 2135  2488  2487 1
 2136  2489  2487 1
 2137  2490  2487 1
 2138  2491  2490 1
 2139  2493  2492 1
 2140  2494  2493 1
 2141  2495  2493 1
 2142  2496  2493 1
 2143  2497  2496 1
 2144  2499  2498 1
 2145  2500  2499 1
 2146  2501  2499 1
 2147  2502  2499 1
 2148  2503  2502 1
 2149  2505  2504 1
 2150  2506  2505 1
 2151  2507  2505 1
 2152  2508  2505 1
 2153  2509  2508 1
 2154  2511  2510 1
 2155  2512  2511 1
 2156  2513  2511 1
 2157  2514  2511 1
 2158  2515  2514 1
 2159  2517  2516 1
 2160  2518  2517 1
 2161  2519  2517 1
 2162  2520  2517 1
 2163  2521  2520 1
 2164  2523  2522 1
 2165  2524  2523 1
 2166  2525  2523 1
 2167  2526  2523 1
 2168  2527  2526 1
 2169  2529  2528 1
 2170  2530  2529 1
 2171  2531  2529 1
 2172  2532  2529 1
 2173  2533  2532 1
 2174  2535  2534 1
 2175  2536  2535 1
 2176  2537  2535 1
 2177  2538  2535 1
 2178  2539  2538 1
 2179  2541  2540 1
 2180  2542  2541 1
 2181  2543  2541 1
 2182  2544  2541 1
 2183  2545  2544 1
 2184  2547  2546 1
 2185  2548  2547 1
 2186  2549  2547 1
 2187  2550  2547 1
 2188  2551  2550 1
 2189  2553  2552 1
 2190  2554  2553 1
 2191  2555  2553 1
 2192  2556  2553 1
 2193  2557  2556 1
 2194  2559  2558 1
 2195  2560  2559 1
 2196  2561  2559 1
 2197  2562  2559 1
 2198  2563  2562 1
 2199  2565  2564 1
 2200  2566  2565 1
 2201  2567  2565 1
 2202  2568  2565 1
 2203  2569  2568 1
 2204  2571  2570 1
 2205  2572  2571 1
 2206  2573  2571 1
 2207  2574  2571 1
 2208  2575  2574 1
 2209  2577  2576 1
 2210  2578  2577 1
 2211  2579  2577 1
 2212  2580  2577 1
 2213  2581  2580 1
 2214  2583  2582 1
 2215  2584  2583 1
 2216  2585  2583 1
 2217  2586  2583 1
 2218  2587  2586 1
 2219  2589  2588 1
 2220  2590  2589 1
 2221  2591  2589 1
 2222  2592  2589 1
 2223  2593  2592 1
 2224  2595  2594 1
 2225  2596  2595 1
 2226  2597  2595 1
 2227  2598  2595 1
 2228  2599  2598 1
 2229  2601  2600 1
 2230  2602  2601 1
 2231  2603  2601 1
 2232  2604  2601 1
 2233  2605  2604 1
 2234  2607  2606 1
 2235  2608  2607 1
 2236  2609  2607 1
 2237  2610  2607 1
 2238  2611  2610 1
 2239  2613  2612 1
 2240  2614  2613 1
 2241  2615  2613 1
 2242  2616  2613 1
 2243  2617  2616 1
 2244  2619  2618 1
 2245  2620  2619 1
 2246  2621  2619 1
 2247  2622  2619 1
 2248  2623  2622 1
 2249  2625  2624 1
 2250  2626  2625 1
 2251  2627  2625 1
 2252  2628  2625 1
 2253  2629  2628 1
 2254  2631  2630 1
 2255  2632  2631 1
 2256  2633  2631 1
 2257  2634  2631 1
 2258  2635  2634 1
 2259  2637  2636 1
 2260  2638  2637 1
 2261  2639  2637 1
 2262  2640  2637 1
 2263  2641  2640 1
 2264  2643  2642 1
 2265  2644  2643 1
 2266  2645  2643 1
 2267  2646  2643 1
 2268  2647  2646 1
 2269  2649  2648 1
 2270  2650  2649 1
 2271  2651  2649 1
 2272  2652  2649 1
 2273  2653  2652 1
 2274  2655  2654 1
 2275  2656  2655 1
 2276  2657  2655 1
 2277  2658  2655 1
 2278  2659  2658 1
 2279  2661  2660 1
 2280  2662  2661 1
 2281  2663  2661 1
 2282  2664  2661 1
 2283  2665  2664 1
 2284  2667  2666 1
 2285  2668  2667 1
 2286  2669  2667 1
 2287  2670  2667 1
 2288  2671  2670 1
 2289  2673  2672 1
 2290  2674  2673 1
 2291  2675  2673 1
 2292  2676  2673 1
 2293  2677  2676 1
 2294  2679  2678 1
 2295  2680  2679 1
 2296  2681  2679 1
 2297  2682  2679 1
 2298  2683  2682 1
 2299  2685  2684 1
 2300  2686  2685 1
 2301  2687  2685 1
 2302  2688  2685 1
 2303  2689  2688 1
 2304  2691  2690 1
 2305  2692  2691 1
 2306  2693  2691 1
 2307  2694  2691 1
 2308  2695  2694 1
 2309  2697  2696 1
 2310  2698  2697 1
 2311  2699  2697 1
 2312  2700  2697 1
 2313  2701  2700 1
 2314  2703  2702 1
 2315  2704  2703 1
 2316  2705  2703 1
 2317  2706  2703 1
 2318  2707  2706 1
 2319  2709  2708 1
 2320  2710  2709 1
 2321  2711  2709 1
 2322  2712  2709 1
 2323  2713  2712 1
 2324  2715  2714 1
 2325  2716  2715 1
 2326  2717  2715 1
 2327  2718  2715 1
 2328  2719  2718 1
 2329  2721  2720 1
 2330  2722  2721 1
 2331  2723  2721 1
 2332  2724  2721 1
 2333  2725  2724 1
 2334  2727  2726 1
 2335  2728  2727 1
 2336  2729  2727 1
 2337  2730  2727 1
 2338  2731  2730 1
 2339  2733  2732 1
 2340  2734  2733 1
 2341  2735  2733 1
 2342  2736  2733 1
 2343  2737  2736 1
 2344  2739  2738 1
 2345  2740  2739 1
 2346  2741  2739 1
 2347  2742  2739 1
 2348  2743  2742 1
 2349  2745  2744 1
 2350  2746  2745 1
 2351  2747  2745 1
 2352  2748  2745 1
 2353  2749  2748 1
 2354  2751  2750 1
 2355  2752  2751 1
 2356  2753  2751 1
 2357  2754  2751 1
 2358  2755  2754 1
 2359  2757  2756 1
 2360  2758  2757 1
 2361  2759  2757 1
 2362  2760  2757 1
 2363  2761  2760 1
 2364  2763  2762 1
 2365  2764  2763 1
 2366  2765  2763 1
 2367  2766  2763 1
 2368  2767  2766 1
 2369  2769  2768 1
 2370  2770  2769 1
 2371  2771  2769 1
 2372  2772  2769 1
 2373  2773  2772 1
 2374  2775  2774 1
 2375  2776  2775 1
 2376  2777  2775 1
 2377  2778  2775 1
 2378  2779  2778 1
 2379  2781  2780 1
 2380  2782  2781 1
 2381  2783  2781 1
 2382  2784  2781 1
 2383  2785  2784 1
 2384  2787  2786 1
 2385  2788  2787 1
 2386  2789  2787 1
 2387  2790  2787 1
 2388  2791  2790 1
 2389  2793  2792 1
 2390  2794  2793 1
 2391  2795  2793 1
 2392  2796  2793 1
 2393  2797  2796 1
 2394  2799  2798 1
 2395  2800  2799 1
 2396  2801  2799 1
 2397  2802  2799 1
 2398  2803  2802 1
 2399  2805  2804 1
 2400  2806  2805 1
 2401  2807  2805 1
 2402  2808  2805 1
 2403  2809  2808 1
 2404  2811  2810 1
 2405  2812  2811 1
 2406  2813  2811 1
 2407  2814  2811 1
 2408  2815  2814 1
 2409  2817  2816 1
 2410  2818  2817 1
 2411  2819  2817 1
 2412  2820  2817 1
 2413  2821  2820 1
 2414  2823  2822 1
 2415  2824  2823 1
 2416  2825  2823 1
 2417  2826  2823 1
 2418  2827  2826 1
 2419  2829  2828 1
 2420  2830  2829 1
 2421  2831  2829 1
 2422  2832  2829 1
 2423  2833  2832 1
 2424  2835  2834 1
 2425  2836  2835 1
 2426  2837  2835 1
 2427  2838  2835 1
 2428  2839  2838 1
 2429  2841  2840 1
 2430  2842  2841 1
 2431  2843  2841 1
 2432  2844  2841 1
 2433  2845  2844 1
 2434  2847  2846 1
 2435  2848  2847 1
 2436  2849  2847 1
 2437  2850  2847 1
 2438  2851  2850 1
 2439  2853  2852 1
 2440  2854  2853 1
 2441  2855  2853 1
 2442  2856  2853 1
 2443  2857  2856 1
 2444  2859  2858 1
 2445  2860  2859 1
 2446  2861  2859 1
 2447  2862  2859 1
 2448  2863  2862 1
 2449  2865  2864 1
 2450  2866  2865 1
 2451  2867  2865 1
 2452  2868  2865 1
 2453  2869  2868 1
 2454  2871  2870 1
 2455  2872  2871 1
 2456  2873  2871 1
 2457  2874  2871 1
 2458  2875  2874 1
 2459  2877  2876 1
 2460  2878  2877 1
 2461  2879  2877 1
 2462  2880  2877 1
 2463  2881  2880 1
 2464  2883  2882 1
 2465  2884  2883 1
 2466  2885  2883 1
 2467  2886  2883 1
 2468  2887  2886 1
 2469  2889  2888 1
 2470  2890  2889 1
 2471  2891  2889 1
 2472  2892  2889 1
 2473  2893  2892 1
 2474  2895  2894 1
 2475  2896  2895 1
 2476  2897  2895 1
 2477  2898  2895 1
 2478  2899  2898 1
 2479  2901  2900 1
 2480  2902  2901 1
 2481  2903  2901 1
 2482  2904  2901 1
 2483  2905  2904 1
 2484  2907  2906 1
 2485  2908  2907 1
 2486  2909  2907 1
 2487  2910  2907 1
 2488  2911  2910 1
 2489  2913  2912 1
 2490  2914  2913 1
 2491  2915  2913 1
 2492  2916  2913 1
 2493  2917  2916 1
 2494  2919  2918 1
 2495  2920  2919 1
 2496  2921  2919 1
 2497  2922  2919 1
 2498  2923  2922 1
 2499  2925  2924 1
 2500  2926  2925 1
 2501  2927  2925 1
 2502  2928  2925 1
 2503  2929  2928 1
 2504  2931  2930 1
 2505  2932  2931 1
 2506  2933  2931 1
 2507  2934  2931 1
 2508  2935  2934 1
 2509  2937  2936 1
 2510  2938  2937 1
 2511  2939  2937 1
 2512  2940  2937 1
 2513  2941  2940 1
 2514  2943  2942 1
 2515  2944  2943 1
 2516  2945  2943 1
 2517  2946  2943 1
 2518  2947  2946 1
 2519  2949  2948 1
 2520  2950  2949 1
 2521  2951  2949 1
 2522  2952  2949 1
 2523  2953  2952 1
 2524  2955  2954 1
 2525  2956  2955 1
 2526  2957  2955 1
 2527  2958  2955 1
 2528  2959  2958 1
 2529  2961  2960 1
 2530  2962  2961 1
 2531  2963  2961 1
 2532  2964  2961 1
 2533  2965  2964 1
 2534  2967  2966 1
 2535  2968  2967 1
 2536  2969  2967 1
 2537  2970  2967 1
 2538  2971  2970 1
 2539  2973  2972 1
 2540  2974  2973 1
 2541  2975  2973 1
 2542  2976  2973 1
 2543  2977  2976 1
 2544  2979  2978 1
 2545  2980  2979 1
 2546  2981  2979 1
 2547  2982  2979 1
 2548  2983  2982 1
 2549  2985  2984 1
 2550  2986  2985 1
 2551  2987  2985 1
 2552  2988  2985 1
 2553  2989  2988 1
 2554  2991  2990 1
 2555  2992  2991 1
 2556  2993  2991 1
 2557  2994  2991 1
 2558  2995  2994 1
 2559  2997  2996 1
 2560  2998  2997 1
 2561  2999  2997 1
 2562  3000  2997 1
 2563  3001  3000 1
 2564  3003  3002 1
 2565  3004  3003 1
 2566  3005  3003 1
 2567  3006  3003 1
 2568  3007  3006 1
 2569  3009  3008 1
 2570  3010  3009 1
 2571  3011  3009 1
 2572  3012  3009 1
 2573  3013  3012 1
 2574  3015  3014 1
 2575  3016  3015 1
 2576  3017  3015 1
 2577  3018  3015 1
 2578  3019  3018 1
 2579  3021  3020 1
 2580  3022  3021 1
 2581  3023  3021 1
 2582  3024  3021 1
 2583  3025  3024 1
 2584  3027  3026 1
 2585  3028  3027 1
 2586  3029  3027 1
 2587  3030  3027 1
 2588  3031  3030 1
 2589  3033  3032 1
 2590  3034  3033 1
 2591  3035  3033 1
 2592  3036  3033 1
 2593  3037  3036 1
 2594  3039  3038 1
 2595  3040  3039 1
 2596  3041  3039 1
 2597  3042  3039 1
 2598  3043  3042 1
 2599  3045  3044 1
 2600  3046  3045 1
 2601  3047  3045 1
 2602  3048  3045 1
 2603  3049  3048 1
 2604  3051  3050 1
 2605  3052  3051 1
 2606  3053  3051 1
 2607  3054  3051 1
 2608  3055  3054 1
 2609  3057  3056 1
 2610  3058  3057 1
 2611  3059  3057 1
 2612  3060  3057 1
 2613  3061  3060 1
 2614  3063  3062 1
 2615  3064  3063 1
 2616  3065  3063 1
 2617  3066  3063 1
 2618  3067  3066 1
 2619  3069  3068 1
 2620  3070  3069 1
 2621  3071  3069 1
 2622  3072  3069 1
 2623  3073  3072 1
 2624  3075  3074 1
 2625  3076  3075 1
 2626  3077  3075 1
 2627  3078  3075 1
 2628  3079  3078 1
 2629  3081  3080 1
 2630  3082  3081 1
 2631  3083  3081 1
 2632  3084  3081 1
 2633  3085  3084 1
 2634  3087  3086 1
 2635  3088  3087 1
 2636  3089  3087 1
 2637  3090  3087 1
 2638  3091  3090 1
 2639  3093  3092 1
 2640  3094  3093 1
 2641  3095  3093 1
 2642  3096  3093 1
 2643  3097  3096 1
 2644  3099  3098 1
 2645  3100  3099 1
 2646  3101  3099 1
 2647  3102  3099 1
 2648  3103  3102 1
 2649  3105  3104 1
 2650  3106  3105 1
 2651  3107  3105 1
 2652  3108  3105 1
 2653  3109  3108 1
 2654  3111  3110 1
 2655  3112  3111 1
 2656  3113  3111 1
 2657  3114  3111 1
 2658  3115  3114 1
 2659  3117  3116 1
 2660  3118  3117 1
 2661  3119  3117 1
 2662  3120  3117 1
 2663  3121  3120 1
 2664  3123  3122 1
 2665  3124  3123 1
 2666  3125  3123 1
 2667  3126  3123 1
 2668  3127  3126 1
 2669  3129  3128 1
 2670  3130  3129 1
 2671  3131  3129 1
 2672  3132  3129 1
 2673  3133  3132 1
 2674  3135  3134 1
 2675  3136  3135 1
 2676  3137  3135 1
 2677  3138  3135 1
 2678  3139  3138 1
 2679  3141  3140 1
 2680  3142  3141 1
 2681  3143  3141 1
 2682  3144  3141 1
 2683  3145  3144 1
 2684  3147  3146 1
 2685  3148  3147 1
 2686  3149  3147 1
 2687  3150  3147 1
 2688  3151  3150 1
 2689  3153  3152 1
 2690  3154  3153 1
 2691  3155  3153 1
 2692  3156  3153 1
 2693  3157  3156 1
 2694  3159  3158 1
 2695  3160  3159 1
 2696  3161  3159 1
 2697  3162  3159 1
 2698  3163  3162 1
 2699  3165  3164 1
 2700  3166  3165 1
 2701  3167  3165 1
 2702  3168  3165 1
 2703  3169  3168 1
 2704  3171  3170 1
 2705  3172  3171 1
 2706  3173  3171 1
 2707  3174  3171 1
 2708  3175  3174 1
 2709  3177  3176 1
 2710  3178  3177 1
 2711  3179  3177 1
 2712  3180  3177 1
 2713  3181  3180 1
 2714  3183  3182 1
 2715  3184  3183 1
 2716  3185  3183 1
 2717  3186  3183 1
 2718  3187  3186 1
 2719  3189  3188 1
 2720  3190  3189 1
 2721  3191  3189 1
 2722  3192  3189 1
 2723  3193  3192 1
 2724  3195  3194 1
 2725  3196  3195 1
 2726  3197  3195 1
 2727  3198  3195 1
 2728  3199  3198 1
 2729  3201  3200 1
 2730  3202  3201 1
 2731  3203  3201 1
 2732  3204  3201 1
 2733  3205  3204 1
 2734  3207  3206 1
 2735  3208  3207 1
 2736  3209  3207 1
 2737  3210  3207 1
 2738  3211  3210 1
 2739  3213  3212 1
 2740  3214  3213 1
 2741  3215  3213 1
 2742  3216  3213 1
 2743  3217  3216 1
 2744  3219  3218 1
 2745  3220  3219 1
 2746  3221  3219 1
 2747  3222  3219 1
 2748  3223  3222 1
 2749  3225  3224 1
 2750  3226  3225 1
 2751  3227  3225 1
 2752  3228  3225 1
 2753  3229  3228 1
 2754  3231  3230 1
 2755  3232  3231 1
 2756  3233  3231 1
 2757  3234  3231 1
 2758  3235  3234 1
 2759  3237  3236 1
 2760  3238  3237 1
 2761  3239  3237 1
 2762  3240  3237 1
 2763  3241  3240 1
 2764  3243  3242 1
 2765  3244  3243 1
 2766  3245  3243 1
 2767  3246  3243 1
 2768  3247  3246 1
 2769  3249  3248 1
 2770  3250  3249 1
 2771  3251  3249 1
 2772  3252  3249 1
 2773  3253  3252 1
 2774  3255  3254 1
 2775  3256  3255 1
 2776  3257  3255 1
 2777  3258  3255 1
 2778  3259  3258 1
 2779  3261  3260 1
 2780  3262  3261 1
 2781  3263  3261 1
 2782  3264  3261 1
 2783  3265  3264 1
 2784  3267  3266 1
 2785  3268  3267 1
 2786  3269  3267 1
 2787  3270  3267 1
 2788  3271  3270 1
 2789  3273  3272 1
 2790  3274  3273 1
 2791  3275  3273 1
 2792  3276  3273 1
 2793  3277  3276 1
 2794  3279  3278 1
 2795  3280  3279 1
 2796  3281  3279 1
 2797  3282  3279 1
 2798  3283  3282 1
 2799  3285  3284 1
 2800  3286  3285 1
 2801  3287  3285 1
 2802  3288  3285 1
 2803  3289  3288 1
 2804  3291  3290 1
 2805  3292  3291 1
 2806  3293  3291 1
 2807  3294  3291 1
 2808  3295  3294 1
 2809  3297  3296 1
 2810  3298  3297 1
 2811  3299  3297 1
 2812  3300  3297 1
 2813  3301  3300 1
 2814  3303  3302 1
 2815  3304  3303 1
 2816  3305  3303 1
 2817  3306  3303 1
 2818  3307  3306 1
 2819  3309  3308 1
 2820  3310  3309 1
 2821  3311  3309 1
 2822  3312  3309 1
 2823  3313  3312 1
 2824  3315  3314 1
 2825  3316  3315 1
 2826  3317  3315 1
 2827  3318  3315 1
 2828  3319  3318 1
 2829  3321  3320 1
 2830  3322  3321 1
 2831  3323  3321 1
 2832  3324  3321 1
 2833  3325  3324 1
 2834  3327  3326 1
 2835  3328  3327 1
 2836  3329  3327 1
 2837  3330  3327 1
 2838  3331  3330 1
 2839  3333  3332 1
 2840  3334  3333 1
 2841  3335  3333 1
 2842  3336  3333 1
 2843  3337  3336 1
 2844  3339  3338 1
 2845  3340  3339 1
 2846  3341  3339 1
 2847  3342  3339 1
 2848  3343  3342 1
 2849  3345  3344 1
 2850  3346  3345 1
 2851  3347  3345 1
 2852  3348  3345 1
 2853  3349  3348 1
 2854  3351  3350 1
 2855  3352  3351 1
 2856  3353  3351 1
 2857  3354  3351 1
 2858  3355  3354 1
 2859  3357  3356 1
 2860  3358  3357 1
 2861  3359  3357 1
 2862  3360  3357 1
 2863  3361  3360 1
 2864  3363  3362 1
 2865  3364  3363 1
 2866  3365  3363 1
 2867  3366  3363 1
 2868  3367  3366 1
 2869  3369  3368 1
 2870  3370  3369 1
 2871  3371  3369 1
 2872  3372  3369 1
 2873  3373  3372 1
 2874  3375  3374 1
 2875  3376  3375 1
 2876  3377  3375 1
 2877  3378  3375 1
 2878  3379  3378 1
 2879  3381  3380 1
 2880  3382  3381 1
 2881  3383  3381 1
 2882  3384  3381 1
 2883  3385  3384 1
 2884  3387  3386 1
 2885  3388  3387 1
 2886  3389  3387 1
 2887  3390  3387 1
 2888  3391  3390 1
 2889  3393  3392 1
 2890  3394  3393 1
 2891  3395  3393 1
 2892  3396  3393 1
 2893  3397  3396 1
 2894  3399  3398 1
 2895  3400  3399 1
 2896  3401  3399 1
 2897  3402  3399 1
 2898  3403  3402 1
 2899  3405  3404 1
 2900  3406  3405 1
 2901  3407  3405 1
 2902  3408  3405 1
 2903  3409  3408 1
 2904  3411  3410 1
 2905  3412  3411 1
 2906  3413  3411 1
 2907  3414  3411 1
 2908  3415  3414 1
 2909  3417  3416 1
 2910  3418  3417 1
 2911  3419  3417 1
 2912  3420  3417 1
 2913  3421  3420 1
 2914  3423  3422 1
 2915  3424  3423 1
 2916  3425  3423 1
 2917  3426  3423 1
 2918  3427  3426 1
 2919  3429  3428 1
 2920  3430  3429 1
 2921  3431  3429 1
 2922  3432  3429 1
 2923  3433  3432 1
 2924  3435  3434 1
 2925  3436  3435 1
 2926  3437  3435 1
 2927  3438  3435 1
 2928  3439  3438 1
 2929  3441  3440 1
 2930  3442  3441 1
 2931  3443  3441 1
 2932  3444  3441 1
 2933  3445  3444 1
 2934  3447  3446 1
 2935  3448  3447 1
 2936  3449  3447 1
 2937  3450  3447 1
 2938  3451  3450 1
 2939  3453  3452 1
 2940  3454  3453 1
 2941  3455  3453 1
 2942  3456  3453 1
 2943  3457  3456 1
 2944  3459  3458 1
 2945  3460  3459 1
 2946  3461  3459 1
 2947  3462  3459 1
 2948  3463  3462 1
 2949  3465  3464 1
 2950  3466  3465 1
 2951  3467  3465 1
 2952  3468  3465 1
 2953  3469  3468 1
 2954  3471  3470 1
 2955  3472  3471 1
 2956  3473  3471 1
 2957  3474  3471 1
 2958  3475  3474 1
 2959  3477  3476 1
 2960  3478  3477 1
 2961  3479  3477 1
 2962  3480  3477 1
 2963  3481  3480 1
 2964  3483  3482 1
 2965  3484  3483 1
 2966  3485  3483 1
 2967  3486  3483 1
 2968  3487  3486 1
 2969  3489  3488 1
 2970  3490  3489 1
 2971  3491  3489 1
 2972  3492  3489 1
 2973  3493  3492 1
 2974  3495  3494 1
 2975  3496  3495 1
 2976  3497  3495 1
 2977  3498  3495 1
 2978  3499  3498 1
 2979  3501  3500 1
 2980  3502  3501 1
 2981  3503  3501 1
 2982  3504  3501 1
 2983  3505  3504 1
 2984  3507  3506 1
 2985  3508  3507 1
 2986  3509  3507 1
 2987  3510  3507 1
 2988  3511  3510 1
 2989  3513  3512 1
 2990  3514  3513 1
 2991  3515  3513 1
 2992  3516  3513 1
 2993  3517  3516 1
 2994  3519  3518 1
 2995  3520  3519 1
 2996  3521  3519 1
 2997  3522  3519 1
 2998  3523  3522 1
 2999  3525  3524 1
 3000  3526  3525 1
 3001  3527  3525 1
 3002  3528  3525 1
 3003  3529  3528 1
 3004  3531  3530 1
 3005  3532  3531 1
 3006  3533  3531 1
 3007  3534  3531 1
 3008  3535  3534 1
 3009  3537  3536 1
 3010  3538  3537 1
 3011  3539  3537 1
 3012  3540  3537 1
 3013  3541  3540 1
 3014  3543  3542 1
 3015  3544  3543 1
 3016  3545  3543 1
 3017  3546  3543 1
 3018  3547  3546 1
 3019  3549  3548 1
 3020  3550  3549 1
 3021  3551  3549 1
 3022  3552  3549 1
 3023  3553  3552 1
 3024  3555  3554 1
 3025  3556  3555 1
 3026  3557  3555 1
 3027  3558  3555 1
 3028  3559  3558 1
 3029  3561  3560 1
 3030  3562  3561 1
 3031  3563  3561 1
 3032  3564  3561 1
 3033  3565  3564 1
 3034  3567  3566 1
 3035  3568  3567 1
 3036  3569  3567 1
 3037  3570  3567 1
 3038  3571  3570 1
 3039  3573  3572 1
 3040  3574  3573 1
 3041  3575  3573 1
 3042  3576  3573 1
 3043  3577  3576 1
 3044  3579  3578 1
 3045  3580  3579 1
 3046  3581  3579 1
 3047  3582  3579 1
 3048  3583  3582 1
 3049  3585  3584 1
 3050  3586  3585 1
 3051  3587  3585 1
 3052  3588  3585 1
 3053  3589  3588 1
 3054  3591  3590 1
 3055  3592  3591 1
 3056  3593  3591 1
 3057  3594  3591 1
 3058  3595  3594 1
 3059  3597  3596 1
 3060  3598  3597 1
 3061  3599  3597 1
 3062  3600  3597 1
 3063  3601  3600 1
 3064  3603  3602 1
 3065  3604  3603 1
 3066  3605  3603 1
 3067  3606  3603 1
 3068  3607  3606 1
 3069  3609  3608 1
 3070  3610  3609 1
 3071  3611  3609 1
 3072  3612  3609 1
 3073  3613  3612 1
 3074  3615  3614 1
 3075  3616  3615 1
 3076  3617  3615 1
 3077  3618  3615 1
 3078  3619  3618 1
 3079  3621  3620 1
 3080  3622  3621 1
 3081  3623  3621 1
 3082  3624  3621 1
 3083  3625  3624 1
 3084  3627  3626 1
 3085  3628  3627 1
 3086  3629  3627 1
 3087  3630  3627 1
 3088  3631  3630 1
 3089  3633  3632 1
 3090  3634  3633 1
 3091  3635  3633 1
 3092  3636  3633 1
 3093  3637  3636 1
 3094  3639  3638 1
 3095  3640  3639 1
 3096  3641  3639 1
 3097  3642  3639 1
 3098  3643  3642 1
 3099  3645  3644 1
 3100  3646  3645 1
 3101  3647  3645 1
 3102  3648  3645 1
 3103  3649  3648 1
 3104  3651  3650 1
 3105  3652  3651 1
 3106  3653  3651 1
 3107  3654  3651 1
 3108  3655  3654 1
 3109  3657  3656 1
 3110  3658  3657 1
 3111  3659  3657 1
 3112  3660  3657 1
 3113  3661  3660 1
 3114  3663  3662 1
 3115  3664  3663 1
 3116  3665  3663 1
 3117  3666  3663 1
 3118  3667  3666 1
 3119  3669  3668 1
 3120  3670  3669 1
 3121  3671  3669 1
 3122  3672  3669 1
 3123  3673  3672 1
 3124  3675  3674 1
 3125  3676  3675 1
 3126  3677  3675 1
 3127  3678  3675 1
 3128  3679  3678 1
 3129  3681  3680 1
 3130  3682  3681 1
 3131  3683  3681 1
 3132  3684  3681 1
 3133  3685  3684 1
 3134  3687  3686 1
 3135  3688  3687 1
 3136  3689  3687 1
 3137  3690  3687 1
 3138  3691  3690 1
 3139  3693  3692 1
 3140  3694  3693 1
 3141  3695  3693 1
 3142  3696  3693 1
 3143  3697  3696 1
 3144  3699  3698 1
 3145  3700  3699 1
 3146  3701  3699 1
 3147  3702  3699 1
 3148  3703  3702 1
 3149  3705  3704 1
 3150  3706  3705 1
 3151  3707  3705 1
 3152  3708  3705 1
 3153  3709  3708 1
 3154  3711  3710 1
 3155  3712  3711 1
 3156  3713  3711 1
 3157  3714  3711 1
 3158  3715  3714 1
 3159  3717  3716 1
 3160  3718  3717 1
 3161  3719  3717 1
 3162  3720  3717 1
 3163  3721  3720 1
 3164  3723  3722 1
 3165  3724  3723 1
 3166  3725  3723 1
 3167  3726  3723 1
 3168  3727  3726 1
 3169  3729  3728 1
 3170  3730  3729 1
 3171  3731  3729 1
 3172  3732  3729 1
 3173  3733  3732 1
 3174  3735  3734 1
 3175  3736  3735 1
 3176  3737  3735 1
 3177  3738  3735 1
 3178  3739  3738 1
 3179  3741  3740 1
 3180  3742  3741 1
 3181  3743  3741 1
 3182  3744  3741 1
 3183  3745  3744 1
 3184  3747  3746 1
 3185  3748  3747 1
 3186  3749  3747 1
 3187  3750  3747 1
 3188  3751  3750 1
 3189  3753  3752 1
 3190  3754  3753 1
 3191  3755  3753 1
 3192  3756  3753 1
 3193  3757  3756 1
 3194  3759  3758 1
 3195  3760  3759 1
 3196  3761  3759 1
 3197  3762  3759 1
 3198  3763  3762 1
 3199  3765  3764 1
 3200  3766  3765 1
 3201  3767  3765 1
 3202  3768  3765 1
 3203  3769  3768 1
 3204  3771  3770 1
 3205  3772  3771 1
 3206  3773  3771 1
 3207  3774  3771 1
 3208  3775  3774 1
 3209  3777  3776 1
 3210  3778  3777 1
 3211  3779  3777 1
 3212  3780  3777 1
 3213  3781  3780 1
 3214  3783  3782 1
 3215  3784  3783 1
 3216  3785  3783 1
 3217  3786  3783 1
 3218  3787  3786 1
 3219  3789  3788 1
 3220  3790  3789 1
 3221  3791  3789 1
 3222  3792  3789 1
 3223  3793  3792 1
 3224  3795  3794 1
 3225  3796  3795 1
 3226  3797  3795 1
 3227  3798  3795 1
 3228  3799  3798 1
 3229  3801  3800 1
 3230  3802  3801 1
 3231  3803  3801 1
 3232  3804  3801 1
 3233  3805  3804 1
 3234  3807  3806 1
 3235  3808  3807 1
 3236  3809  3807 1
 3237  3810  3807 1
 3238  3811  3810 1
 3239  3813  3812 1
 3240  3814  3813 1
 3241  3815  3813 1
 3242  3816  3813 1
 3243  3817  3816 1
 3244  3819  3818 1
 3245  3820  3819 1
 3246  3821  3819 1
 3247  3822  3819 1
 3248  3823  3822 1
 3249  3825  3824 1
 3250  3826  3825 1
 3251  3827  3825 1
 3252  3828  3825 1
 3253  3829  3828 1
 3254  3831  3830 1
 3255  3832  3831 1
 3256  3833  3831 1
 3257  3834  3831 1
 3258  3835  3834 1
 3259  3837  3836 1
 3260  3838  3837 1
 3261  3839  3837 1
 3262  3840  3837 1
 3263  3841  3840 1
 3264  3843  3842 1
 3265  3844  3843 1
 3266  3845  3843 1
 3267  3846  3843 1
 3268  3847  3846 1
 3269  3849  3848 1
 3270  3850  3849 1
 3271  3851  3849 1
 3272  3852  3849 1
 3273  3853  3852 1
 3274  3855  3854 1
 3275  3856  3855 1
 3276  3857  3855 1
 3277  3858  3855 1
 3278  3859  3858 1
 3279  3861  3860 1
 3280  3862  3861 1
 3281  3863  3861 1
 3282  3864  3861 1
 3283  3865  3864 1
 3284  3867  3866 1
 3285  3868  3867 1
 3286  3869  3867 1
 3287  3870  3867 1
 3288  3871  3870 1
 3289  3873  3872 1
 3290  3874  3873 1
 3291  3875  3873 1
 3292  3876  3873 1
 3293  3877  3876 1
 3294  3879  3878 1
 3295  3880  3879 1
 3296  3881  3879 1
 3297  3882  3879 1
 3298  3883  3882 1
 3299  3885  3884 1
 3300  3886  3885 1
 3301  3887  3885 1
 3302  3888  3885 1
 3303  3889  3888 1
 3304  3891  3890 1
 3305  3892  3891 1
 3306  3893  3891 1
 3307  3894  3891 1
 3308  3895  3894 1
 3309  3897  3896 1
 3310  3898  3897 1
 3311  3899  3897 1
 3312  3900  3897 1
 3313  3901  3900 1
 3314  3903  3902 1
 3315  3904  3903 1
 3316  3905  3903 1
 3317  3906  3903 1
 3318  3907  3906 1
 3319  3909  3908 1
 3320  3910  3909 1
 3321  3911  3909 1
 3322  3912  3909 1
 3323  3913  3912 1
 3324  3915  3914 1
 3325  3916  3915 1
 3326  3917  3915 1
 3327  3918  3915 1
 3328  3919  3918 1
 3329  3921  3920 1
 3330  3922  3921 1
 3331  3923  3921 1
 3332  3924  3921 1
 3333  3925  3924 1
 3334  3927  3926 1
 3335  3928  3927 1
 3336  3929  3927 1
 3337  3930  3927 1
 3338  3931  3930 1
 3339  3933  3932 1
 3340  3934  3933 1
 3341  3935  3933 1
 3342  3936  3933 1
 3343  3937  3936 1
 3344  3939  3938 1
 3345  3940  3939 1
 3346  3941  3939 1
 3347  3942  3939 1
 3348  3943  3942 1
 3349  3945  3944 1
 3350  3946  3945 1
 3351  3947  3945 1
 3352  3948  3945 1
 3353  3949  3948 1
 3354  3951  3950 1
 3355  3952  3951 1
 3356  3953  3951 1
 3357  3954  3951 1
 3358  3955  3954 1
 3359  3957  3956 1
 3360  3958  3957 1
 3361  3959  3957 1
 3362  3960  3957 1
 3363  3961  3960 1
 3364  3963  3962 1
 3365  3964  3963 1
 3366  3965  3963 1
 3367  3966  3963 1
 3368  3967  3966 1
 3369  3969  3968 1
 3370  3970  3969 1
 3371  3971  3969 1
 3372  3972  3969 1
 3373  3973  3972 1
 3374  3975  3974 1
 3375  3976  3975 1
 3376  3977  3975 1
 3377  3978  3975 1
 3378  3979  3978 1
 3379  3981  3980 1
 3380  3982  3981 1
 3381  3983  3981 1
 3382  3984  3981 1
 3383  3985  3984 1
 3384  3987  3986 1
 3385  3988  3987 1
 3386  3989  3987 1
 3387  3990  3987 1
 3388  3991  3990 1
 3389  3993  3992 1
 3390  3994  3993 1
 3391  3995  3993 1
 3392  3996  3993 1
 3393  3997  3996 1
 3394  3999  3998 1
 3395  4000  3999 1
 3396  4001  3999 1
 3397  4002  3999 1
 3398  4003  4002 1
 3399  4005  4004 1
 3400  4006  4005 1
 3401  4007  4005 1
 3402  4008  4005 1
 3403  4009  4008 1
 3404  4011  4010 1
 3405  4012  4011 1
 3406  4013  4011 1
 3407  4014  4011 1
 3408  4015  4014 1
 3409  4017  4016 1
 3410  4018  4017 1
 3411  4019  4017 1
 3412  4020  4017 1
 3413  4021  4020 1
 3414  4023  4022 1
 3415  4024  4023 1
 3416  4025  4023 1
 3417  4026  4023 1
 3418  4027  4026 1
 3419  4029  4028 1
 3420  4030  4029 1
 3421  4031  4029 1
 3422  4032  4029 1
 3423  4033  4032 1
 3424  4035  4034 1
 3425  4036  4035 1
 3426  4037  4035 1
 3427  4038  4035 1
 3428  4039  4038 1
 3429  4041  4040 1
 3430  4042  4041 1
 3431  4043  4041 1
 3432  4044  4041 1
 3433  4045  4044 1
 3434  4047  4046 1
 3435  4048  4047 1
 3436  4049  4047 1
 3437  4050  4047 1
 3438  4051  4050 1
 3439  4053  4052 1
 3440  4054  4053 1
 3441  4055  4053 1
 3442  4056  4053 1
 3443  4057  4056 1
 3444  4059  4058 1
 3445  4060  4059 1
 3446  4061  4059 1
 3447  4062  4059 1
 3448  4063  4062 1
 3449  4065  4064 1
 3450  4066  4065 1
 3451  4067  4065 1
 3452  4068  4065 1
 3453  4069  4068 1
 3454  4071  4070 1
 3455  4072  4071 1
 3456  4073  4071 1
 3457  4074  4071 1
 3458  4075  4074 1
 3459  4077  4076 1
 3460  4078  4077 1
 3461  4079  4077 1
 3462  4080  4077 1
 3463  4081  4080 1
 3464  4083  4082 1
 3465  4084  4083 1
 3466  4085  4083 1
 3467  4086  4083 1
 3468  4087  4086 1
 3469  4089  4088 1
 3470  4090  4089 1
 3471  4091  4089 1
 3472  4092  4089 1
 3473  4093  4092 1
 3474  4095  4094 1
 3475  4096  4095 1
 3476  4097  4095 1
 3477  4098  4095 1
 3478  4099  4098 1
 3479  4101  4100 1
 3480  4102  4101 1
 3481  4103  4101 1
 3482  4104  4101 1
 3483  4105  4104 1
 3484  4107  4106 1
 3485  4108  4107 1
 3486  4109  4107 1
 3487  4110  4107 1
 3488  4111  4110 1
 3489  4113  4112 1
 3490  4114  4113 1
 3491  4115  4113 1
 3492  4116  4113 1
 3493  4117  4116 1
 3494  4119  4118 1
 3495  4120  4119 1
 3496  4121  4119 1
 3497  4122  4119 1
 3498  4123  4122 1
 3499  4125  4124 1
 3500  4126  4125 1
 3501  4127  4125 1
 3502  4128  4125 1
 3503  4129  4128 1
 3504  4131  4130 1
 3505  4132  4131 1
 3506  4133  4131 1
 3507  4134  4131 1
 3508  4135  4134 1
 3509  4137  4136 1
 3510  4138  4137 1
 3511  4139  4137 1
 3512  4140  4137 1
 3513  4141  4140 1
 3514  4143  4142 1
 3515  4144  4143 1
 3516  4145  4143 1
 3517  4146  4143 1
 3518  4147  4146 1
 3519  4149  4148 1
 3520  4150  4149 1
 3521  4151  4149 1
 3522  4152  4149 1
 3523  4153  4152 1
 3524  4155  4154 1
 3525  4156  4155 1
 3526  4157  4155 1
 3527  4158  4155 1
 3528  4159  4158 1
 3529  4161  4160 1
 3530  4162  4161 1
 3531  4163  4161 1
 3532  4164  4161 1
 3533  4165  4164 1
 3534  4167  4166 1
 3535  4168  4167 1
 3536  4169  4167 1
 3537  4170  4167 1
 3538  4171  4170 1
 3539  4173  4172 1
 3540  4174  4173 1
 3541  4175  4173 1
 3542  4176  4173 1
 3543  4177  4176 1
 3544  4179  4178 1
 3545  4180  4179 1
 3546  4181  4179 1
 3547  4182  4179 1
 3548  4183  4182 1
 3549  4185  4184 1
 3550  4186  4185 1
 3551  4187  4185 1
 3552  4188  4185 1
 3553  4189  4188 1
 3554  4191  4190 1
 3555  4192  4191 1
 3556  4193  4191 1
 3557  4194  4191 1
 3558  4195  4194 1
 3559  4197  4196 1
 3560  4198  4197 1
 3561  4199  4197 1
 3562  4200  4197 1
 3563  4201  4200 1
 3564  4203  4202 1
 3565  4204  4203 1
 3566  4205  4203 1
 3567  4206  4203 1
 3568  4207  4206 1
 3569  4209  4208 1
 3570  4210  4209 1
 3571  4211  4209 1
 3572  4212  4209 1
 3573  4213  4212 1
 3574  4215  4214 1
 3575  4216  4215 1
 3576  4217  4215 1
 3577  4218  4215 1
 3578  4219  4218 1
 3579  4221  4220 1
 3580  4222  4221 1
 3581  4223  4221 1
 3582  4224  4221 1
 3583  4225  4224 1
 3584  4227  4226 1
 3585  4228  4227 1
 3586  4229  4227 1
 3587  4230  4227 1
 3588  4231  4230 1
 3589  4233  4232 1
 3590  4234  4233 1
 3591  4235  4233 1
 3592  4236  4233 1
 3593  4237  4236 1
 3594  4239  4238 1
 3595  4240  4239 1
 3596  4241  4239 1
 3597  4242  4239 1
 3598  4243  4242 1
 3599  4245  4244 1
 3600  4246  4245 1
 3601  4247  4245 1
 3602  4248  4245 1
 3603  4249  4248 1
 3604  4251  4250 1
 3605  4252  4251 1
 3606  4253  4251 1
 3607  4254  4251 1
 3608  4255  4254 1
 3609  4257  4256 1
 3610  4258  4257 1
 3611  4259  4257 1
 3612  4260  4257 1
 3613  4261  4260 1
 3614  4263  4262 1
 3615  4264  4263 1
 3616  4265  4263 1
 3617  4266  4263 1
 3618  4267  4266 1
 3619  4269  4268 1
 3620  4270  4269 1
 3621  4271  4269 1
 3622  4272  4269 1
 3623  4273  4272 1
 3624  4275  4274 1
 3625  4276  4275 1
 3626  4277  4275 1
 3627  4278  4275 1
 3628  4279  4278 1
 3629  4281  4280 1
 3630  4282  4281 1
 3631  4283  4281 1
 3632  4284  4281 1
 3633  4285  4284 1
 3634  4287  4286 1
 3635  4288  4287 1
 3636  4289  4287 1
 3637  4290  4287 1
 3638  4291  4290 1
 3639  4293  4292 1
 3640  4294  4293 1
 3641  4295  4293 1
 3642  4296  4293 1
 3643  4297  4296 1
 3644  4299  4298 1
 3645  4300  4299 1
 3646  4301  4299 1
 3647  4302  4299 1
 3648  4303  4302 1
 3649  4305  4304 1
 3650  4306  4305 1
 3651  4307  4305 1
 3652  4308  4305 1
 3653  4309  4308 1
 3654  4311  4310 1
 3655  4312  4311 1
 3656  4313  4311 1
 3657  4314  4311 1
 3658  4315  4314 1
 3659  4317  4316 1
 3660  4318  4317 1
 3661  4319  4317 1
 3662  4320  4317 1
 3663  4321  4320 1
 3664  4323  4322 1
 3665  4324  4323 1
 3666  4325  4323 1
 3667  4326  4323 1
 3668  4327  4326 1
 3669  4329  4328 1
 3670  4330  4329 1
 3671  4331  4329 1
 3672  4332  4329 1
 3673  4333  4332 1
 3674  4335  4334 1
 3675  4336  4335 1
 3676  4337  4335 1
 3677  4338  4335 1
 3678  4339  4338 1
 3679  4341  4340 1
 3680  4342  4341 1
 3681  4343  4341 1
 3682  4344  4341 1
 3683  4345  4344 1
 3684  4347  4346 1
 3685  4348  4347 1
 3686  4349  4347 1
 3687  4350  4347 1
 3688  4351  4350 1
 3689  4353  4352 1
 3690  4354  4353 1
 3691  4355  4353 1
 3692  4356  4353 1
 3693  4357  4356 1
 3694  4359  4358 1
 3695  4360  4359 1
 3696  4361  4359 1
 3697  4362  4359 1
 3698  4363  4362 1
 3699  4365  4364 1
 3700  4366  4365 1
 3701  4367  4365 1
 3702  4368  4365 1
 3703  4369  4368 1
 3704  4371  4370 1
 3705  4372  4371 1
 3706  4373  4371 1
 3707  4374  4371 1
 3708  4375  4374 1
 3709  4377  4376 1
 3710  4378  4377 1
 3711  4379  4377 1
 3712  4380  4377 1
 3713  4381  4380 1
 3714  4383  4382 1
 3715  4384  4383 1
 3716  4385  4383 1
 3717  4386  4383 1
 3718  4387  4386 1
 3719  4389  4388 1
 3720  4390  4389 1
 3721  4391  4389 1
 3722  4392  4389 1
 3723  4393  4392 1
 3724  4395  4394 1
 3725  4396  4395 1
 3726  4397  4395 1
 3727  4398  4395 1
 3728  4399  4398 1
 3729  4401  4400 1
 3730  4402  4401 1
 3731  4403  4401 1
 3732  4404  4401 1
 3733  4405  4404 1
 3734  4407  4406 1
 3735  4408  4407 1
 3736  4409  4407 1
 3737  4410  4407 1
 3738  4411  4410 1
 3739  4413  4412 1
 3740  4414  4413 1
 3741  4415  4413 1
 3742  4416  4413 1
 3743  4417  4416 1
 3744  4419  4418 1
 3745  4420  4419 1
 3746  4421  4419 1
 3747  4422  4419 1
 3748  4423  4422 1
 3749  4425  4424 1
 3750  4426  4425 1
 3751  4427  4425 1
 3752  4428  4425 1
 3753  4429  4428 1
 3754  4431  4430 1
 3755  4432  4431 1
 3756  4433  4431 1
 3757  4434  4431 1
 3758  4435  4434 1
 3759  4437  4436 1
 3760  4438  4437 1
 3761  4439  4437 1
 3762  4440  4437 1
 3763  4441  4440 1
 3764  4443  4442 1
 3765  4444  4443 1
 3766  4445  4443 1
 3767  4446  4443 1
 3768  4447  4446 1
 3769  4449  4448 1
 3770  4450  4449 1
 3771  4451  4449 1
 3772  4452  4449 1
 3773  4453  4452 1
 3774  4455  4454 1
 3775  4456  4455 1
 3776  4457  4455 1
 3777  4458  4455 1
 3778  4459  4458 1
 3779  4461  4460 1
 3780  4462  4461 1
 3781  4463  4461 1
 3782  4464  4461 1
 3783  4465  4464 1
 3784  4467  4466 1
 3785  4468  4467 1
 3786  4469  4467 1
 3787  4470  4467 1
 3788  4471  4470 1
 3789  4473  4472 1
 3790  4474  4473 1
 3791  4475  4473 1
 3792  4476  4473 1
 3793  4477  4476 1
 3794  4479  4478 1
 3795  4480  4479 1
 3796  4481  4479 1
 3797  4482  4479 1
 3798  4483  4482 1
 3799  4485  4484 1
 3800  4486  4485 1
 3801  4487  4485 1
 3802  4488  4485 1
 3803  4489  4488 1
 3804  4491  4490 1
 3805  4492  4491 1
 3806  4493  4491 1
 3807  4494  4491 1
 3808  4495  4494 1
 3809  4497  4496 1
 3810  4498  4497 1
 3811  4499  4497 1
 3812  4500  4497 1
 3813  4501  4500 1
 3814  4503  4502 1
 3815  4504  4503 1
 3816  4505  4503 1
 3817  4506  4503 1
 3818  4507  4506 1
 3819  4509  4508 1
 3820  4510  4509 1
 3821  4511  4509 1
 3822  4512  4509 1
 3823  4513  4512 1
 3824  4515  4514 1
 3825  4516  4515 1
 3826  4517  4515 1
 3827  4518  4515 1
 3828  4519  4518 1
 3829  4521  4520 1
 3830  4522  4521 1
 3831  4523  4521 1
 3832  4524  4521 1
 3833  4525  4524 1
 3834  4527  4526 1
 3835  4528  4527 1
 3836  4529  4527 1
 3837  4530  4527 1
 3838  4531  4530 1
 3839  4533  4532 1
 3840  4534  4533 1
 3841  4535  4533 1
 3842  4536  4533 1
 3843  4537  4536 1
 3844  4539  4538 1
 3845  4540  4539 1
 3846  4541  4539 1
 3847  4542  4539 1
 3848  4543  4542 1
 3849  4545  4544 1
 3850  4546  4545 1
 3851  4547  4545 1
 3852  4548  4545 1
 3853  4549  4548 1
 3854  4551  4550 1
 3855  4552  4551 1
 3856  4553  4551 1
 3857  4554  4551 1
 3858  4555  4554 1
 3859  4557  4556 1
 3860  4558  4557 1
 3861  4559  4557 1
 3862  4560  4557 1
 3863  4561  4560 1
 3864  4563  4562 1
 3865  4564  4563 1
 3866  4565  4563 1
 3867  4566  4563 1
 3868  4567  4566 1
 3869  4569  4568 1
 3870  4570  4569 1
 3871  4571  4569 1
 3872  4572  4569 1
 3873  4573  4572 1
 3874  4575  4574 1
 3875  4576  4575 1
 3876  4577  4575 1
 3877  4578  4575 1
 3878  4579  4578 1
 3879  4581  4580 1
 3880  4582  4581 1
 3881  4583  4581 1
 3882  4584  4581 1
 3883  4585  4584 1
 3884  4587  4586 1
 3885  4588  4587 1
 3886  4589  4587 1
 3887  4590  4587 1
 3888  4591  4590 1
 3889  4593  4592 1
 3890  4594  4593 1
 3891  4595  4593 1
 3892  4596  4593 1
 3893  4597  4596 1
 3894  4599  4598 1
 3895  4600  4599 1
 3896  4601  4599 1
 3897  4602  4599 1
 3898  4603  4602 1
 3899  4605  4604 1
 3900  4606  4605 1
 3901  4607  4605 1
 3902  4608  4605 1
 3903  4609  4608 1
 3904  4611  4610 1
 3905  4612  4611 1
 3906  4613  4611 1
 3907  4614  4611 1
 3908  4615  4614 1
 3909  4617  4616 1
 3910  4618  4617 1
 3911  4619  4617 1
 3912  4620  4617 1
 3913  4621  4620 1
 3914  4623  4622 1
 3915  4624  4623 1
 3916  4625  4623 1
 3917  4626  4623 1
 3918  4627  4626 1
 3919  4629  4628 1
 3920  4630  4629 1
 3921  4631  4629 1
 3922  4632  4629 1
 3923  4633  4632 1
 3924  4635  4634 1
 3925  4636  4635 1
 3926  4637  4635 1
 3927  4638  4635 1
 3928  4639  4638 1
 3929  4641  4640 1
 3930  4642  4641 1
 3931  4643  4641 1
 3932  4644  4641 1
 3933  4645  4644 1
 3934  4647  4646 1
 3935  4648  4647 1
 3936  4649  4647 1
 3937  4650  4647 1
 3938  4651  4650 1
 3939  4653  4652 1
 3940  4654  4653 1
 3941  4655  4653 1
 3942  4656  4653 1
 3943  4657  4656 1
 3944  4659  4658 1
 3945  4660  4659 1
 3946  4661  4659 1
 3947  4662  4659 1
 3948  4663  4662 1
 3949  4665  4664 1
 3950  4666  4665 1
 3951  4667  4665 1
 3952  4668  4665 1
 3953  4669  4668 1
 3954  4671  4670 1
 3955  4672  4671 1
 3956  4673  4671 1
 3957  4674  4671 1
 3958  4675  4674 1
 3959  4677  4676 1
 3960  4678  4677 1
 3961  4679  4677 1
 3962  4680  4677 1
 3963  4681  4680 1
 3964  4683  4682 1
 3965  4684  4683 1
 3966  4685  4683 1
 3967  4686  4683 1
 3968  4687  4686 1
 3969  4689  4688 1
 3970  4690  4689 1
 3971  4691  4689 1
 3972  4692  4689 1
 3973  4693  4692 1
 3974  4695  4694 1
 3975  4696  4695 1
 3976  4697  4695 1
 3977  4698  4695 1
 3978  4699  4698 1
 3979  4701  4700 1
 3980  4702  4701 1
 3981  4703  4701 1
 3982  4704  4701 1
 3983  4705  4704 1
 3984  4707  4706 1
 3985  4708  4707 1
 3986  4709  4707 1
 3987  4710  4707 1
 3988  4711  4710 1
 3989  4713  4712 1
 3990  4714  4713 1
 3991  4715  4713 1
 3992  4716  4713 1
 3993  4717  4716 1
 3994  4719  4718 1
 3995  4720  4719 1
 3996  4721  4719 1
 3997  4722  4719 1
 3998  4723  4722 1
 3999  4725  4724 1
 4000  4726  4725 1
 4001  4727  4725 1
 4002  4728  4725 1
 4003  4729  4728 1
 4004  4731  4730 1
 4005  4732  4731 1
 4006  4733  4731 1
 4007  4734  4731 1
 4008  4735  4734 1
 4009  4737  4736 1
 4010  4738  4737 1
 4011  4739  4737 1
 4012  4740  4737 1
 4013  4741  4740 1
 4014  4743  4742 1
 4015  4744  4743 1
 4016  4745  4743 1
 4017  4746  4743 1
 4018  4747  4746 1
 4019  4749  4748 1
 4020  4750  4749 1
 4021  4751  4749 1
 4022  4752  4749 1
 4023  4753  4752 1
 4024  4755  4754 1
 4025  4756  4755 1
 4026  4757  4755 1
 4027  4758  4755 1
 4028  4759  4758 1
 4029  4761  4760 1
 4030  4762  4761 1
 4031  4763  4761 1
 4032  4764  4761 1
 4033  4765  4764 1
 4034  4767  4766 1
 4035  4768  4767 1
 4036  4769  4767 1
 4037  4770  4767 1
 4038  4771  4770 1
 4039  4773  4772 1
 4040  4774  4773 1
 4041  4775  4773 1
 4042  4776  4773 1
 4043  4777  4776 1
 4044  4779  4778 1
 4045  4780  4779 1
 4046  4781  4779 1
 4047  4782  4779 1
 4048  4783  4782 1
 4049  4785  4784 1
 4050  4786  4785 1
 4051  4787  4785 1
 4052  4788  4785 1
 4053  4789  4788 1
 4054  4791  4790 1
 4055  4792  4791 1
 4056  4793  4791 1
 4057  4794  4791 1
 4058  4795  4794 1
 4059  4797  4796 1
 4060  4798  4797 1
 4061  4799  4797 1
 4062  4800  4797 1
 4063  4801  4800 1
 4064  4803  4802 1
 4065  4804  4803 1
 4066  4805  4803 1
 4067  4806  4803 1
 4068  4807  4806 1
 4069  4809  4808 1
 4070  4810  4809 1
 4071  4811  4809 1
 4072  4812  4809 1
 4073  4813  4812 1
 4074  4815  4814 1
 4075  4816  4815 1
 4076  4817  4815 1
 4077  4818  4815 1
 4078  4819  4818 1
 4079  4821  4820 1
 4080  4822  4821 1
 4081  4823  4821 1
 4082  4824  4821 1
 4083  4825  4824 1
 4084  4827  4826 1
 4085  4828  4827 1
 4086  4829  4827 1
 4087  4830  4827 1
 4088  4831  4830 1
 4089  4833  4832 1
 4090  4834  4833 1
 4091  4835  4833 1
 4092  4836  4833 1
 4093  4837  4836 1
 4094  4839  4838 1
 4095  4840  4839 1
 4096  4841  4839 1
 4097  4842  4839 1
 4098  4843  4842 1
 4099  4845  4844 1
 4100  4846  4845 1
 4101  4847  4845 1
 4102  4848  4845 1
 4103  4849  4848 1
 4104  4851  4850 1
 4105  4852  4851 1
 4106  4853  4851 1
 4107  4854  4851 1
 4108  4855  4854 1
 4109  4857  4856 1
 4110  4858  4857 1
 4111  4859  4857 1
 4112  4860  4857 1
 4113  4861  4860 1
 4114  4863  4862 1
 4115  4864  4863 1
 4116  4865  4863 1
 4117  4866  4863 1
 4118  4867  4866 1
 4119  4869  4868 1
 4120  4870  4869 1
 4121  4871  4869 1
 4122  4872  4869 1
 4123  4873  4872 1
 4124  4875  4874 1
 4125  4876  4875 1
 4126  4877  4875 1
 4127  4878  4875 1
 4128  4879  4878 1
 4129  4881  4880 1
 4130  4882  4881 1
 4131  4883  4881 1
 4132  4884  4881 1
 4133  4885  4884 1
 4134  4887  4886 1
 4135  4888  4887 1
 4136  4889  4887 1
 4137  4890  4887 1
 4138  4891  4890 1
 4139  4893  4892 1
 4140  4894  4893 1
 4141  4895  4893 1
 4142  4896  4893 1
 4143  4897  4896 1
 4144  4899  4898 1
 4145  4900  4899 1
 4146  4901  4899 1
 4147  4902  4899 1
 4148  4903  4902 1
 4149  4905  4904 1
 4150  4906  4905 1
 4151  4907  4905 1
 4152  4908  4905 1
 4153  4909  4908 1
 4154  4911  4910 1
 4155  4912  4911 1
 4156  4913  4911 1
 4157  4914  4911 1
 4158  4915  4914 1
 4159  4917  4916 1
 4160  4918  4917 1
 4161  4919  4917 1
 4162  4920  4917 1
 4163  4921  4920 1
 4164  4923  4922 1
 4165  4924  4923 1
 4166  4925  4923 1
 4167  4926  4923 1
 4168  4927  4926 1
 4169  4929  4928 1
 4170  4930  4929 1
 4171  4931  4929 1
 4172  4932  4929 1
 4173  4933  4932 1
 4174  4935  4934 1
 4175  4936  4935 1
 4176  4937  4935 1
 4177  4938  4935 1
 4178  4939  4938 1
 4179  4941  4940 1
 4180  4942  4941 1
 4181  4943  4941 1
 4182  4944  4941 1
 4183  4945  4944 1
 4184  4947  4946 1
 4185  4948  4947 1
 4186  4949  4947 1
 4187  4950  4947 1
 4188  4951  4950 1
 4189  4953  4952 1
 4190  4954  4953 1
 4191  4955  4953 1
 4192  4956  4953 1
 4193  4957  4956 1
 4194  4959  4958 1
 4195  4960  4959 1
 4196  4961  4959 1
 4197  4962  4959 1
 4198  4963  4962 1
 4199  4965  4964 1
 4200  4966  4965 1
 4201  4967  4965 1
 4202  4968  4965 1
 4203  4969  4968 1
 4204  4971  4970 1
 4205  4972  4971 1
 4206  4973  4971 1
 4207  4974  4971 1
 4208  4975  4974 1
 4209  4977  4976 1
 4210  4978  4977 1
 4211  4979  4977 1
 4212  4980  4977 1
 4213  4981  4980 1
 4214  4983  4982 1
 4215  4984  4983 1
 4216  4985  4983 1
 4217  4986  4983 1
 4218  4987  4986 1
 4219  4989  4988 1
 4220  4990  4989 1
 4221  4991  4989 1
 4222  4992  4989 1
 4223  4993  4992 1
 4224  4995  4994 1
 4225  4996  4995 1
 4226  4997  4995 1
 4227  4998  4995 1
 4228  4999  4998 1
 4229  5001  5000 1
 4230  5002  5001 1
 4231  5003  5001 1
 4232  5004  5001 1
 4233  5005  5004 1
 4234  5007  5006 1
 4235  5008  5007 1
 4236  5009  5007 1
 4237  5010  5007 1
 4238  5011  5010 1
 4239  5013  5012 1
 4240  5014  5013 1
 4241  5015  5013 1
 4242  5016  5013 1
 4243  5017  5016 1
 4244  5019  5018 1
 4245  5020  5019 1
 4246  5021  5019 1
 4247  5022  5019 1
 4248  5023  5022 1
 4249  5025  5024 1
 4250  5026  5025 1
 4251  5027  5025 1
 4252  5028  5025 1
 4253  5029  5028 1
 4254  5031  5030 1
 4255  5032  5031 1
 4256  5033  5031 1
 4257  5034  5031 1
 4258  5035  5034 1
 4259  5037  5036 1
 4260  5038  5037 1
 4261  5039  5037 1
 4262  5040  5037 1
 4263  5041  5040 1
 4264  5043  5042 1
 4265  5044  5043 1
 4266  5045  5043 1
 4267  5046  5043 1
 4268  5047  5046 1
 4269  5049  5048 1
 4270  5050  5049 1
 4271  5051  5049 1
 4272  5052  5049 1
 4273  5053  5052 1
 4274  5055  5054 1
 4275  5056  5055 1
 4276  5057  5055 1
 4277  5058  5055 1
 4278  5059  5058 1
 4279  5061  5060 1
 4280  5062  5061 1
 4281  5063  5061 1
 4282  5064  5061 1
 4283  5065  5064 1
 4284  5067  5066 1
 4285  5068  5067 1
 4286  5069  5067 1
 4287  5070  5067 1
 4288  5071  5070 1
 4289  5073  5072 1
 4290  5074  5073 1
 4291  5075  5073 1
 4292  5076  5073 1
 4293  5077  5076 1
 4294  5079  5078 1
 4295  5080  5079 1
 4296  5081  5079 1
 4297  5082  5079 1
 4298  5083  5082 1
 4299  5085  5084 1
 4300  5086  5085 1
 4301  5087  5085 1
 4302  5088  5085 1
 4303  5089  5088 1
 4304  5091  5090 1
 4305  5092  5091 1
 4306  5093  5091 1
 4307  5094  5091 1
 4308  5095  5094 1
 4309  5097  5096 1
 4310  5098  5097 1
 4311  5099  5097 1
 4312  5100  5097 1
 4313  5101  5100 1
 4314  5103  5102 1
 4315  5104  5103 1
 4316  5105  5103 1
 4317  5106  5103 1
 4318  5107  5106 1
 4319  5109  5108 1
 4320  5110  5109 1
 4321  5111  5109 1
 4322  5112  5109 1
 4323  5113  5112 1
 4324  5115  5114 1
 4325  5116  5115 1
 4326  5117  5115 1
 4327  5118  5115 1
 4328  5119  5118 1
 4329  5121  5120 1
 4330  5122  5121 1
 4331  5123  5121 1
 4332  5124  5121 1
 4333  5125  5124 1
 4334  5127  5126 1
 4335  5128  5127 1
 4336  5129  5127 1
 4337  5130  5127 1
 4338  5131  5130 1
 4339  5133  5132 1
 4340  5134  5133 1
 4341  5135  5133 1
 4342  5136  5133 1
 4343  5137  5136 1
 4344  5139  5138 1
 4345  5140  5139 1
 4346  5141  5139 1
 4347  5142  5139 1
 4348  5143  5142 1
 4349  5145  5144 1
 4350  5146  5145 1
 4351  5147  5145 1
 4352  5148  5145 1
 4353  5149  5148 1
 4354  5151  5150 1
 4355  5152  5151 1
 4356  5153  5151 1
 4357  5154  5151 1
 4358  5155  5154 1
 4359  5157  5156 1
 4360  5158  5157 1
 4361  5159  5157 1
 4362  5160  5157 1
 4363  5161  5160 1
 4364  5163  5162 1
 4365  5164  5163 1
 4366  5165  5163 1
 4367  5166  5163 1
 4368  5167  5166 1
 4369  5169  5168 1
 4370  5170  5169 1
 4371  5171  5169 1
 4372  5172  5169 1
 4373  5173  5172 1
 4374  5175  5174 1
 4375  5176  5175 1
 4376  5177  5175 1
 4377  5178  5175 1
 4378  5179  5178 1
 4379  5181  5180 1
 4380  5182  5181 1
 4381  5183  5181 1
 4382  5184  5181 1
 4383  5185  5184 1
 4384  5187  5186 1
 4385  5188  5187 1
 4386  5189  5187 1
 4387  5190  5187 1
 4388  5191  5190 1
 4389  5193  5192 1
 4390  5194  5193 1
 4391  5195  5193 1
 4392  5196  5193 1
 4393  5197  5196 1
 4394  5199  5198 1
 4395  5200  5199 1
 4396  5201  5199 1
 4397  5202  5199 1
 4398  5203  5202 1
 4399  5205  5204 1
 4400  5206  5205 1
 4401  5207  5205 1
 4402  5208  5205 1
 4403  5209  5208 1
 4404  5211  5210 1
 4405  5212  5211 1
 4406  5213  5211 1
 4407  5214  5211 1
 4408  5215  5214 1
 4409  5217  5216 1
 4410  5218  5217 1
 4411  5219  5217 1
 4412  5220  5217 1
 4413  5221  5220 1
 4414  5223  5222 1
 4415  5224  5223 1
 4416  5225  5223 1
 4417  5226  5223 1
 4418  5227  5226 1
 4419  5229  5228 1
 4420  5230  5229 1
 4421  5231  5229 1
 4422  5232  5229 1
 4423  5233  5232 1
 4424  5235  5234 1
 4425  5236  5235 1
 4426  5237  5235 1
 4427  5238  5235 1
 4428  5239  5238 1
 4429  5241  5240 1
 4430  5242  5241 1
 4431  5243  5241 1
 4432  5244  5241 1
 4433  5245  5244 1
 4434  5247  5246 1
 4435  5248  5247 1
 4436  5249  5247 1
 4437  5250  5247 1
 4438  5251  5250 1
 4439  5253  5252 1
 4440  5254  5253 1
 4441  5255  5253 1
 4442  5256  5253 1
 4443  5257  5256 1
 4444  5259  5258 1
 4445  5260  5259 1
 4446  5261  5259 1
 4447  5262  5259 1
 4448  5263  5262 1
 4449  5265  5264 1
 4450  5266  5265 1
 4451  5267  5265 1
 4452  5268  5265 1
 4453  5269  5268 1
 4454  5271  5270 1
 4455  5272  5271 1
 4456  5273  5271 1
 4457  5274  5271 1
 4458  5275  5274 1
 4459  5277  5276 1
 4460  5278  5277 1
 4461  5279  5277 1
 4462  5280  5277 1
 4463  5281  5280 1
 4464  5283  5282 1
 4465  5284  5283 1
 4466  5285  5283 1
 4467  5286  5283 1
 4468  5287  5286 1
 4469  5289  5288 1
 4470  5290  5289 1
 4471  5291  5289 1
 4472  5292  5289 1
 4473  5293  5292 1
 4474  5295  5294 1
 4475  5296  5295 1
 4476  5297  5295 1
 4477  5298  5295 1
 4478  5299  5298 1
 4479  5301  5300 1
 4480  5302  5301 1
 4481  5303  5301 1
 4482  5304  5301 1
 4483  5305  5304 1
 4484  5307  5306 1
 4485  5308  5307 1
 4486  5309  5307 1
 4487  5310  5307 1
 4488  5311  5310 1
 4489  5313  5312 1
 4490  5314  5313 1
 4491  5315  5313 1
 4492  5316  5313 1
 4493  5317  5316 1
 4494  5319  5318 1
 4495  5320  5319 1
 4496  5321  5319 1
 4497  5322  5319 1
 4498  5323  5322 1
 4499  5325  5324 1
 4500  5326  5325 1
 4501  5327  5325 1
 4502  5328  5325 1
 4503  5329  5328 1
 4504  5331  5330 1
 4505  5332  5331 1
 4506  5333  5331 1
 4507  5334  5331 1
 4508  5335  5334 1
 4509  5337  5336 1
 4510  5338  5337 1
 4511  5339  5337 1
 4512  5340  5337 1
 4513  5341  5340 1
 4514  5343  5342 1
 4515  5344  5343 1
 4516  5345  5343 1
 4517  5346  5343 1
 4518  5347  5346 1
 4519  5349  5348 1
 4520  5350  5349 1
 4521  5351  5349 1
 4522  5352  5349 1
 4523  5353  5352 1
 4524  5355  5354 1
 4525  5356  5355 1
 4526  5357  5355 1
 4527  5358  5355 1
 4528  5359  5358 1
 4529  5361  5360 1
 4530  5362  5361 1
 4531  5363  5361 1
 4532  5364  5361 1
 4533  5365  5364 1
 4534  5367  5366 1
 4535  5368  5367 1
 4536  5369  5367 1
 4537  5370  5367 1
 4538  5371  5370 1
 4539  5373  5372 1
 4540  5374  5373 1
 4541  5375  5373 1
 4542  5376  5373 1
 4543  5377  5376 1
 4544  5379  5378 1
 4545  5380  5379 1
 4546  5381  5379 1
 4547  5382  5379 1
 4548  5383  5382 1
 4549  5385  5384 1
 4550  5386  5385 1
 4551  5387  5385 1
 4552  5388  5385 1
 4553  5389  5388 1
 4554  5391  5390 1
 4555  5392  5391 1
 4556  5393  5391 1
 4557  5394  5391 1
 4558  5395  5394 1
 4559  5397  5396 1
 4560  5398  5397 1
 4561  5399  5397 1
 4562  5400  5397 1
 4563  5401  5400 1
 4564  5403  5402 1
 4565  5404  5403 1
 4566  5405  5403 1
 4567  5406  5403 1
 4568  5407  5406 1
 4569  5409  5408 1
 4570  5410  5409 1
 4571  5411  5409 1
 4572  5412  5409 1
 4573  5413  5412 1
 4574  5415  5414 1
 4575  5416  5415 1
 4576  5417  5415 1
 4577  5418  5415 1
 4578  5419  5418 1
 4579  5421  5420 1
 4580  5422  5421 1
 4581  5423  5421 1
 4582  5424  5421 1
 4583  5425  5424 1
 4584  5427  5426 1
 4585  5428  5427 1
 4586  5429  5427 1
 4587  5430  5427 1
 4588  5431  5430 1
 4589  5433  5432 1
 4590  5434  5433 1
 4591  5435  5433 1
 4592  5436  5433 1
 4593  5437  5436 1
 4594  5439  5438 1
 4595  5440  5439 1
 4596  5441  5439 1
 4597  5442  5439 1
 4598  5443  5442 1
 4599  5445  5444 1
 4600  5446  5445 1
 4601  5447  5445 1
 4602  5448  5445 1
 4603  5449  5448 1
 4604  5451  5450 1
 4605  5452  5451 1
 4606  5453  5451 1
 4607  5454  5451 1
 4608  5455  5454 1
 4609  5457  5456 1
 4610  5458  5457 1
 4611  5459  5457 1
 4612  5460  5457 1
 4613  5461  5460 1
 4614  5463  5462 1
 4615  5464  5463 1
 4616  5465  5463 1
 4617  5466  5463 1
 4618  5467  5466 1
 4619  5469  5468 1
 4620  5470  5469 1
 4621  5471  5469 1
 4622  5472  5469 1
 4623  5473  5472 1
 4624  5475  5474 1
 4625  5476  5475 1
 4626  5477  5475 1
 4627  5478  5475 1
 4628  5479  5478 1
 4629  5481  5480 1
 4630  5482  5481 1
 4631  5483  5481 1
 4632  5484  5481 1
 4633  5485  5484 1
 4634  5487  5486 1
 4635  5488  5487 1
 4636  5489  5487 1
 4637  5490  5487 1
 4638  5491  5490 1
 4639  5493  5492 1
 4640  5494  5493 1
 4641  5495  5493 1
 4642  5496  5493 1
 4643  5497  5496 1
 4644  5499  5498 1
 4645  5500  5499 1
 4646  5501  5499 1
 4647  5502  5499 1
 4648  5503  5502 1
 4649  5505  5504 1
 4650  5506  5505 1
 4651  5507  5505 1
 4652  5508  5505 1
 4653  5509  5508 1
 4654  5511  5510 1
 4655  5512  5511 1
 4656  5513  5511 1
 4657  5514  5511 1
 4658  5515  5514 1
 4659  5517  5516 1
 4660  5518  5517 1
 4661  5519  5517 1
 4662  5520  5517 1
 4663  5521  5520 1
 4664  5523  5522 1
 4665  5524  5523 1
 4666  5525  5523 1
 4667  5526  5523 1
 4668  5527  5526 1
 4669  5529  5528 1
 4670  5530  5529 1
 4671  5531  5529 1
 4672  5532  5529 1
 4673  5533  5532 1
 4674  5535  5534 1
 4675  5536  5535 1
 4676  5537  5535 1
 4677  5538  5535 1
 4678  5539  5538 1
 4679  5541  5540 1
 4680  5542  5541 1
 4681  5543  5541 1
 4682  5544  5541 1
 4683  5545  5544 1
 4684  5547  5546 1
 4685  5548  5547 1
 4686  5549  5547 1
 4687  5550  5547 1
 4688  5551  5550 1
 4689  5553  5552 1
 4690  5554  5553 1
 4691  5555  5553 1
 4692  5556  5553 1
 4693  5557  5556 1
 4694  5559  5558 1
 4695  5560  5559 1
 4696  5561  5559 1
 4697  5562  5559 1
 4698  5563  5562 1
 4699  5565  5564 1
 4700  5566  5565 1
 4701  5567  5565 1
 4702  5568  5565 1
 4703  5569  5568 1
 4704  5571  5570 1
 4705  5572  5571 1
 4706  5573  5571 1
 4707  5574  5571 1
 4708  5575  5574 1
 4709  5577  5576 1
 4710  5578  5577 1
 4711  5579  5577 1
 4712  5580  5577 1
 4713  5581  5580 1
 4714  5583  5582 1
 4715  5584  5583 1
 4716  5585  5583 1
 4717  5586  5583 1
 4718  5587  5586 1
 4719  5589  5588 1
 4720  5590  5589 1
 4721  5591  5589 1
 4722  5592  5589 1
 4723  5593  5592 1
 4724  5595  5594 1
 4725  5596  5595 1
 4726  5597  5595 1
 4727  5598  5595 1
 4728  5599  5598 1
 4729  5601  5600 1
 4730  5602  5601 1
 4731  5603  5601 1
 4732  5604  5601 1
 4733  5605  5604 1
 4734  5607  5606 1
 4735  5608  5607 1
 4736  5609  5607 1
 4737  5610  5607 1
 4738  5611  5610 1
 4739  5613  5612 1
 4740  5614  5613 1
 4741  5615  5613 1
 4742  5616  5613 1
 4743  5617  5616 1
 4744  5619  5618 1
 4745  5620  5619 1
 4746  5621  5619 1
 4747  5622  5619 1
 4748  5623  5622 1
 4749  5625  5624 1
 4750  5626  5625 1
 4751  5627  5625 1
 4752  5628  5625 1
 4753  5629  5628 1
 4754  5631  5630 1
 4755  5632  5631 1
 4756  5633  5631 1
 4757  5634  5631 1
 4758  5635  5634 1
 4759  5637  5636 1
 4760  5638  5637 1
 4761  5639  5637 1
 4762  5640  5637 1
 4763  5641  5640 1
 4764  5643  5642 1
 4765  5644  5643 1
 4766  5645  5643 1
 4767  5646  5643 1
 4768  5647  5646 1
 4769  5649  5648 1
 4770  5650  5649 1
 4771  5651  5649 1
 4772  5652  5649 1
 4773  5653  5652 1
 4774  5655  5654 1
 4775  5656  5655 1
 4776  5657  5655 1
 4777  5658  5655 1
 4778  5659  5658 1
 4779  5661  5660 1
 4780  5662  5661 1
 4781  5663  5661 1
 4782  5664  5661 1
 4783  5665  5664 1
 4784  5667  5666 1
 4785  5668  5667 1
 4786  5669  5667 1
 4787  5670  5667 1
 4788  5671  5670 1
 4789  5673  5672 1
 4790  5674  5673 1
 4791  5675  5673 1
 4792  5676  5673 1
 4793  5677  5676 1
 4794  5679  5678 1
 4795  5680  5679 1
 4796  5681  5679 1
 4797  5682  5679 1
 4798  5683  5682 1
 4799  5685  5684 1
 4800  5686  5685 1
 4801  5687  5685 1
 4802  5688  5685 1
 4803  5689  5688 1
 4804  5691  5690 1
 4805  5692  5691 1
 4806  5693  5691 1
 4807  5694  5691 1
 4808  5695  5694 1
 4809  5697  5696 1
 4810  5698  5697 1
 4811  5699  5697 1
 4812  5700  5697 1
 4813  5701  5700 1
 4814  5703  5702 1
 4815  5704  5703 1
 4816  5705  5703 1
 4817  5706  5703 1
 4818  5707  5706 1
 4819  5709  5708 1
 4820  5710  5709 1
 4821  5711  5709 1
 4822  5712  5709 1
 4823  5713  5712 1
 4824  5715  5714 1
 4825  5716  5715 1
 4826  5717  5715 1
 4827  5718  5715 1
 4828  5719  5718 1
 4829  5721  5720 1
 4830  5722  5721 1
 4831  5723  5721 1
 4832  5724  5721 1
 4833  5725  5724 1
 4834  5727  5726 1
 4835  5728  5727 1
 4836  5729  5727 1
 4837  5730  5727 1
 4838  5731  5730 1
 4839  5733  5732 1
 4840  5734  5733 1
 4841  5735  5733 1
 4842  5736  5733 1
 4843  5737  5736 1
 4844  5739  5738 1
 4845  5740  5739 1
 4846  5741  5739 1
 4847  5742  5739 1
 4848  5743  5742 1
 4849  5745  5744 1
 4850  5746  5745 1
 4851  5747  5745 1
 4852  5748  5745 1
 4853  5749  5748 1
 4854  5751  5750 1
 4855  5752  5751 1
 4856  5753  5751 1
 4857  5754  5751 1
 4858  5755  5754 1
 4859  5757  5756 1
 4860  5758  5757 1
 4861  5759  5757 1
 4862  5760  5757 1
 4863  5761  5760 1
 4864  5763  5762 1
 4865  5764  5763 1
 4866  5765  5763 1
 4867  5766  5763 1
 4868  5767  5766 1
 4869  5769  5768 1
 4870  5770  5769 1
 4871  5771  5769 1
 4872  5772  5769 1
 4873  5773  5772 1
 4874  5775  5774 1
 4875  5776  5775 1
 4876  5777  5775 1
 4877  5778  5775 1
 4878  5779  5778 1
 4879  5781  5780 1
 4880  5782  5781 1
 4881  5783  5781 1
 4882  5784  5781 1
 4883  5785  5784 1
 4884  5787  5786 1
 4885  5788  5787 1
 4886  5789  5787 1
 4887  5790  5787 1
 4888  5791  5790 1
 4889  5793  5792 1
 4890  5794  5793 1
 4891  5795  5793 1
 4892  5796  5793 1
 4893  5797  5796 1
 4894  5799  5798 1
 4895  5800  5799 1
 4896  5801  5799 1
 4897  5802  5799 1
 4898  5803  5802 1
 4899  5805  5804 1
 4900  5806  5805 1
 4901  5807  5805 1
 4902  5808  5805 1
 4903  5809  5808 1
 4904  5811  5810 1
 4905  5812  5811 1
 4906  5813  5811 1
 4907  5814  5811 1
 4908  5815  5814 1
 4909  5817  5816 1
 4910  5818  5817 1
 4911  5819  5817 1
 4912  5820  5817 1
 4913  5821  5820 1
 4914  5823  5822 1
 4915  5824  5823 1
 4916  5825  5823 1
 4917  5826  5823 1
 4918  5827  5826 1
 4919  5829  5828 1
 4920  5830  5829 1
 4921  5831  5829 1
 4922  5832  5829 1
 4923  5833  5832 1
 4924  5835  5834 1
 4925  5836  5835 1
 4926  5837  5835 1
 4927  5838  5835 1
 4928  5839  5838 1
 4929  5841  5840 1
 4930  5842  5841 1
 4931  5843  5841 1
 4932  5844  5841 1
 4933  5845  5844 1
 4934  5847  5846 1
 4935  5848  5847 1
 4936  5849  5847 1
 4937  5850  5847 1
 4938  5851  5850 1
 4939  5853  5852 1
 4940  5854  5853 1
 4941  5855  5853 1
 4942  5856  5853 1
 4943  5857  5856 1
 4944  5859  5858 1
 4945  5860  5859 1
 4946  5861  5859 1
 4947  5862  5859 1
 4948  5863  5862 1
 4949  5865  5864 1
 4950  5866  5865 1
 4951  5867  5865 1
 4952  5868  5865 1
 4953  5869  5868 1
 4954  5871  5870 1
 4955  5872  5871 1
 4956  5873  5871 1
 4957  5874  5871 1
 4958  5875  5874 1
 4959  5877  5876 1
 4960  5878  5877 1
 4961  5879  5877 1
 4962  5880  5877 1
 4963  5881  5880 1
 4964  5883  5882 1
 4965  5884  5883 1
 4966  5885  5883 1
 4967  5886  5883 1
 4968  5887  5886 1
 4969  5889  5888 1
 4970  5890  5889 1
 4971  5891  5889 1
 4972  5892  5889 1
 4973  5893  5892 1
 4974  5895  5894 1
 4975  5896  5895 1
 4976  5897  5895 1
 4977  5898  5895 1
 4978  5899  5898 1
 4979  5901  5900 1
 4980  5902  5901 1
 4981  5903  5901 1
 4982  5904  5901 1
 4983  5905  5904 1
 4984  5907  5906 1
 4985  5908  5907 1
 4986  5909  5907 1
 4987  5910  5907 1
 4988  5911  5910 1
 4989  5913  5912 1
 4990  5914  5913 1
 4991  5915  5913 1
 4992  5916  5913 1
 4993  5917  5916 1
 4994  5919  5918 1
 4995  5920  5919 1
 4996  5921  5919 1
 4997  5922  5919 1
 4998  5923  5922 1
 4999  5925  5924 1
 5000  5926  5925 1
 5001  5927  5925 1
 5002  5928  5925 1
 5003  5929  5928 1
 5004  5931  5930 1
 5005  5932  5931 1
 5006  5933  5931 1
 5007  5934  5931 1
 5008  5935  5934 1
 5009  5937  5936 1
 5010  5938  5937 1
 5011  5939  5937 1
 5012  5940  5937 1
 5013  5941  5940 1
 5014  5943  5942 1
 5015  5944  5943 1
 5016  5945  5943 1
 5017  5946  5943 1
 5018  5947  5946 1
 5019  5949  5948 1
 5020  5950  5949 1
 5021  5951  5949 1
 5022  5952  5949 1
 5023  5953  5952 1
 5024  5955  5954 1
 5025  5956  5955 1
 5026  5957  5955 1
 5027  5958  5955 1
 5028  5959  5958 1
 5029  5961  5960 1
 5030  5962  5961 1
 5031  5963  5961 1
 5032  5964  5961 1
 5033  5965  5964 1
 5034  5967  5966 1
 5035  5968  5967 1
 5036  5969  5967 1
 5037  5970  5967 1
 5038  5971  5970 1
 5039  5973  5972 1
 5040  5974  5973 1
 5041  5975  5973 1
 5042  5976  5973 1
 5043  5977  5976 1
 5044  5979  5978 1
 5045  5980  5979 1
 5046  5981  5979 1
 5047  5982  5979 1
 5048  5983  5982 1
 5049  5985  5984 1
 5050  5986  5985 1
 5051  5987  5985 1
 5052  5988  5985 1
 5053  5989  5988 1
 5054  5991  5990 1
 5055  5992  5991 1
 5056  5993  5991 1
 5057  5994  5991 1
 5058  5995  5994 1
 5059  5997  5996 1
 5060  5998  5997 1
 5061  5999  5997 1
 5062  6000  5997 1
 5063  6001  6000 1
 5064  6003  6002 1
 5065  6004  6003 1
 5066  6005  6003 1
 5067  6006  6003 1
 5068  6007  6006 1
 5069  6009  6008 1
 5070  6010  6009 1
 5071  6011  6009 1
 5072  6012  6009 1
 5073  6013  6012 1
 5074  6015  6014 1
 5075  6016  6015 1
 5076  6017  6015 1
 5077  6018  6015 1
 5078  6019  6018 1
 5079  6021  6020 1
 5080  6022  6021 1
 5081  6023  6021 1
 5082  6024  6021 1
 5083  6025  6024 1
 5084  6027  6026 1
 5085  6028  6027 1
 5086  6029  6027 1
 5087  6030  6027 1
 5088  6031  6030 1
 5089  6033  6032 1
 5090  6034  6033 1
 5091  6035  6033 1
 5092  6036  6033 1
 5093  6037  6036 1
 5094  6039  6038 1
 5095  6040  6039 1
 5096  6041  6039 1
 5097  6042  6039 1
 5098  6043  6042 1
 5099  6045  6044 1
 5100  6046  6045 1
 5101  6047  6045 1
 5102  6048  6045 1
 5103  6049  6048 1
 5104  6051  6050 1
 5105  6052  6051 1
 5106  6053  6051 1
 5107  6054  6051 1
 5108  6055  6054 1
 5109  6057  6056 1
 5110  6058  6057 1
 5111  6059  6057 1
 5112  6060  6057 1
 5113  6061  6060 1
 5114  6063  6062 1
 5115  6064  6063 1
 5116  6065  6063 1
 5117  6066  6063 1
 5118  6067  6066 1
 5119  6069  6068 1
 5120  6070  6069 1
 5121  6071  6069 1
 5122  6072  6069 1
 5123  6073  6072 1
 5124  6075  6074 1
 5125  6076  6075 1
 5126  6077  6075 1
 5127  6078  6075 1
 5128  6079  6078 1
 5129  6081  6080 1
 5130  6082  6081 1
 5131  6083  6081 1
 5132  6084  6081 1
 5133  6085  6084 1
 5134  6087  6086 1
 5135  6088  6087 1
 5136  6089  6087 1
 5137  6090  6087 1
 5138  6091  6090 1
 5139  6093  6092 1
 5140  6094  6093 1
 5141  6095  6093 1
 5142  6096  6093 1
 5143  6097  6096 1
 5144  6099  6098 1
 5145  6100  6099 1
 5146  6101  6099 1
 5147  6102  6099 1
 5148  6103  6102 1
 5149  6105  6104 1
 5150  6106  6105 1
 5151  6107  6105 1
 5152  6108  6105 1
 5153  6109  6108 1
 5154  6111  6110 1
 5155  6112  6111 1
 5156  6113  6111 1
 5157  6114  6111 1
 5158  6115  6114 1
 5159  6117  6116 1
 5160  6118  6117 1
 5161  6119  6117 1
 5162  6120  6117 1
 5163  6121  6120 1
 5164  6123  6122 1
 5165  6124  6123 1
 5166  6125  6123 1
 5167  6126  6123 1
 5168  6127  6126 1
 5169  6129  6128 1
 5170  6130  6129 1
 5171  6131  6129 1
 5172  6132  6129 1
 5173  6133  6132 1
 5174  6135  6134 1
 5175  6136  6135 1
 5176  6137  6135 1
 5177  6138  6135 1
 5178  6139  6138 1
 5179  6141  6140 1
 5180  6142  6141 1
 5181  6143  6141 1
 5182  6144  6141 1
 5183  6145  6144 1
 5184  6147  6146 1
 5185  6148  6147 1
 5186  6149  6147 1
 5187  6150  6147 1
 5188  6151  6150 1
 5189  6153  6152 1
 5190  6154  6153 1
 5191  6155  6153 1
 5192  6156  6153 1
 5193  6157  6156 1
 5194  6159  6158 1
 5195  6160  6159 1
 5196  6161  6159 1
 5197  6162  6159 1
 5198  6163  6162 1
 5199  6165  6164 1
 5200  6166  6165 1
 5201  6167  6165 1
 5202  6168  6165 1
 5203  6169  6168 1
 5204  6171  6170 1
 5205  6172  6171 1
 5206  6173  6171 1
 5207  6174  6171 1
 5208  6175  6174 1
 5209  6177  6176 1
 5210  6178  6177 1
 5211  6179  6177 1
 5212  6180  6177 1
 5213  6181  6180 1
 5214  6183  6182 1
 5215  6184  6183 1
 5216  6185  6183 1
 5217  6186  6183 1
 5218  6187  6186 1
 5219  6189  6188 1
 5220  6190  6189 1
 5221  6191  6189 1
 5222  6192  6189 1
 5223  6193  6192 1
 5224  6195  6194 1
 5225  6196  6195 1
 5226  6197  6195 1
 5227  6198  6195 1
 5228  6199  6198 1
 5229  6201  6200 1
 5230  6202  6201 1
 5231  6203  6201 1
 5232  6204  6201 1
 5233  6205  6204 1
 5234  6207  6206 1
 5235  6208  6207 1
 5236  6209  6207 1
 5237  6210  6207 1
 5238  6211  6210 1
 5239  6213  6212 1
 5240  6214  6213 1
 5241  6215  6213 1
 5242  6216  6213 1
 5243  6217  6216 1
 5244  6219  6218 1
 5245  6220  6219 1
 5246  6221  6219 1
 5247  6222  6219 1
 5248  6223  6222 1
 5249  6225  6224 1
 5250  6226  6225 1
 5251  6227  6225 1
 5252  6228  6225 1
 5253  6229  6228 1
 5254  6231  6230 1
 5255  6232  6231 1
 5256  6233  6231 1
 5257  6234  6231 1
 5258  6235  6234 1
 5259  6237  6236 1
 5260  6238  6237 1
 5261  6239  6237 1
 5262  6240  6237 1
 5263  6241  6240 1
 5264  6243  6242 1
 5265  6244  6243 1
 5266  6245  6243 1
 5267  6246  6243 1
 5268  6247  6246 1
 5269  6249  6248 1
 5270  6250  6249 1
 5271  6251  6249 1
 5272  6252  6249 1
 5273  6253  6252 1
 5274  6255  6254 1
 5275  6256  6255 1
 5276  6257  6255 1
 5277  6258  6255 1
 5278  6259  6258 1
 5279  6261  6260 1
 5280  6262  6261 1
 5281  6263  6261 1
 5282  6264  6261 1
 5283  6265  6264 1
 5284  6267  6266 1
 5285  6268  6267 1
 5286  6269  6267 1
 5287  6270  6267 1
 5288  6271  6270 1
 5289  6273  6272 1
 5290  6274  6273 1
 5291  6275  6273 1
 5292  6276  6273 1
 5293  6277  6276 1
 5294  6279  6278 1
 5295  6280  6279 1
 5296  6281  6279 1
 5297  6282  6279 1
 5298  6283  6282 1
 5299  6285  6284 1
 5300  6286  6285 1
 5301  6287  6285 1
 5302  6288  6285 1
 5303  6289  6288 1
 5304  6291  6290 1
 5305  6292  6291 1
 5306  6293  6291 1
 5307  6294  6291 1
 5308  6295  6294 1
 5309  6297  6296 1
 5310  6298  6297 1
 5311  6299  6297 1
 5312  6300  6297 1
 5313  6301  6300 1
 5314  6303  6302 1
 5315  6304  6303 1
 5316  6305  6303 1
 5317  6306  6303 1
 5318  6307  6306 1
 5319  6309  6308 1
 5320  6310  6309 1
 5321  6311  6309 1
 5322  6312  6309 1
 5323  6313  6312 1
 5324  6315  6314 1
 5325  6316  6315 1
 5326  6317  6315 1
 5327  6318  6315 1
 5328  6319  6318 1
 5329  6321  6320 1
 5330  6322  6321 1
 5331  6323  6321 1
 5332  6324  6321 1
 5333  6325  6324 1
 5334  6327  6326 1
 5335  6328  6327 1
 5336  6329  6327 1
 5337  6330  6327 1
 5338  6331  6330 1
 5339  6333  6332 1
 5340  6334  6333 1
 5341  6335  6333 1
 5342  6336  6333 1
 5343  6337  6336 1
 5344  6339  6338 1
 5345  6340  6339 1
 5346  6341  6339 1
 5347  6342  6339 1
 5348  6343  6342 1
 5349  6345  6344 1
 5350  6346  6345 1
 5351  6347  6345 1
 5352  6348  6345 1
 5353  6349  6348 1
 5354  6351  6350 1
 5355  6352  6351 1
 5356  6353  6351 1
 5357  6354  6351 1
 5358  6355  6354 1
 5359  6357  6356 1
 5360  6358  6357 1
 5361  6359  6357 1
 5362  6360  6357 1
 5363  6361  6360 1
 5364  6363  6362 1
 5365  6364  6363 1
 5366  6365  6363 1
 5367  6366  6363 1
 5368  6367  6366 1
 5369  6369  6368 1
 5370  6370  6369 1
 5371  6371  6369 1
 5372  6372  6369 1
 5373  6373  6372 1
 5374  6375  6374 1
 5375  6376  6375 1
 5376  6377  6375 1
 5377  6378  6375 1
 5378  6379  6378 1
 5379  6381  6380 1
 5380  6382  6381 1
 5381  6383  6381 1
 5382  6384  6381 1
 5383  6385  6384 1
 5384  6387  6386 1
 5385  6388  6387 1
 5386  6389  6387 1
 5387  6390  6387 1
 5388  6391  6390 1
 5389  6393  6392 1
 5390  6394  6393 1
 5391  6395  6393 1
 5392  6396  6393 1
 5393  6397  6396 1
 5394  6399  6398 1
 5395  6400  6399 1
 5396  6401  6399 1
 5397  6402  6399 1
 5398  6403  6402 1
 5399  6405  6404 1
 5400  6406  6405 1
 5401  6407  6405 1
 5402  6408  6405 1
 5403  6409  6408 1
 5404  6411  6410 1
 5405  6412  6411 1
 5406  6413  6411 1
 5407  6414  6411 1
 5408  6415  6414 1
 5409  6417  6416 1
 5410  6418  6417 1
 5411  6419  6417 1
 5412  6420  6417 1
 5413  6421  6420 1
 5414  6423  6422 1
 5415  6424  6423 1
 5416  6425  6423 1
 5417  6426  6423 1
 5418  6427  6426 1
 5419  6429  6428 1
 5420  6430  6429 1
 5421  6431  6429 1
 5422  6432  6429 1
 5423  6433  6432 1
 5424  6435  6434 1
 5425  6436  6435 1
 5426  6437  6435 1
 5427  6438  6435 1
 5428  6439  6438 1
 5429  6441  6440 1
 5430  6442  6441 1
 5431  6443  6441 1
 5432  6444  6441 1
 5433  6445  6444 1
 5434  6447  6446 1
 5435  6448  6447 1
 5436  6449  6447 1
 5437  6450  6447 1
 5438  6451  6450 1
 5439  6453  6452 1
 5440  6454  6453 1
 5441  6455  6453 1
 5442  6456  6453 1
 5443  6457  6456 1
 5444  6459  6458 1
 5445  6460  6459 1
 5446  6461  6459 1
 5447  6462  6459 1
 5448  6463  6462 1
 5449  6465  6464 1
 5450  6466  6465 1
 5451  6467  6465 1
 5452  6468  6465 1
 5453  6469  6468 1
 5454  6471  6470 1
 5455  6472  6471 1
 5456  6473  6471 1
 5457  6474  6471 1
 5458  6475  6474 1
 5459  6477  6476 1
 5460  6478  6477 1
 5461  6479  6477 1
 5462  6480  6477 1
 5463  6481  6480 1
 5464  6483  6482 1
 5465  6484  6483 1
 5466  6485  6483 1
 5467  6486  6483 1
 5468  6487  6486 1
 5469  6489  6488 1
 5470  6490  6489 1
 5471  6491  6489 1
 5472  6492  6489 1
 5473  6493  6492 1
 5474  6495  6494 1
 5475  6496  6495 1
 5476  6497  6495 1
 5477  6498  6495 1
 5478  6499  6498 1
 5479  6501  6500 1
 5480  6502  6501 1
 5481  6503  6501 1
 5482  6504  6501 1
 5483  6505  6504 1
 5484  6507  6506 1
 5485  6508  6507 1
 5486  6509  6507 1
 5487  6510  6507 1
 5488  6511  6510 1
 5489  6513  6512 1
 5490  6514  6513 1
 5491  6515  6513 1
 5492  6516  6513 1
 5493  6517  6516 1
 5494  6519  6518 1
 5495  6520  6519 1
 5496  6521  6519 1
 5497  6522  6519 1
 5498  6523  6522 1
 5499  6525  6524 1
 5500  6526  6525 1
 5501  6527  6525 1
 5502  6528  6525 1
 5503  6529  6528 1
 5504  6531  6530 1
 5505  6532  6531 1
 5506  6533  6531 1
 5507  6534  6531 1
 5508  6535  6534 1
 5509  6537  6536 1
 5510  6538  6537 1
 5511  6539  6537 1
 5512  6540  6537 1
 5513  6541  6540 1
 5514  6543  6542 1
 5515  6544  6543 1
 5516  6545  6543 1
 5517  6546  6543 1
 5518  6547  6546 1
 5519  6549  6548 1
 5520  6550  6549 1
 5521  6551  6549 1
 5522  6552  6549 1
 5523  6553  6552 1
 5524  6555  6554 1
 5525  6556  6555 1
 5526  6557  6555 1
 5527  6558  6555 1
 5528  6559  6558 1
 5529  6561  6560 1
 5530  6562  6561 1
 5531  6563  6561 1
 5532  6564  6561 1
 5533  6565  6564 1
 5534  6567  6566 1
 5535  6568  6567 1
 5536  6569  6567 1
 5537  6570  6567 1
 5538  6571  6570 1
 5539  6573  6572 1
 5540  6574  6573 1
 5541  6575  6573 1
 5542  6576  6573 1
 5543  6577  6576 1
 5544  6579  6578 1
 5545  6580  6579 1
 5546  6581  6579 1
 5547  6582  6579 1
 5548  6583  6582 1
 5549  6585  6584 1
 5550  6586  6585 1
 5551  6587  6585 1
 5552  6588  6585 1
 5553  6589  6588 1
 5554  6591  6590 1
 5555  6592  6591 1
 5556  6593  6591 1
 5557  6594  6591 1
 5558  6595  6594 1
 5559  6597  6596 1
 5560  6598  6597 1
 5561  6599  6597 1
 5562  6600  6597 1
 5563  6601  6600 1
 5564  6603  6602 1
 5565  6604  6603 1
 5566  6605  6603 1
 5567  6606  6603 1
 5568  6607  6606 1
 5569  6609  6608 1
 5570  6610  6609 1
 5571  6611  6609 1
 5572  6612  6609 1
 5573  6613  6612 1
 5574  6615  6614 1
 5575  6616  6615 1
 5576  6617  6615 1
 5577  6618  6615 1
 5578  6619  6618 1
 5579  6621  6620 1
 5580  6622  6621 1
 5581  6623  6621 1
 5582  6624  6621 1
 5583  6625  6624 1
 5584  6627  6626 1
 5585  6628  6627 1
 5586  6629  6627 1
 5587  6630  6627 1
 5588  6631  6630 1
 5589  6633  6632 1
 5590  6634  6633 1
 5591  6635  6633 1
 5592  6636  6633 1
 5593  6637  6636 1
 5594  6639  6638 1
 5595  6640  6639 1
 5596  6641  6639 1
 5597  6642  6639 1
 5598  6643  6642 1
 5599  6645  6644 1
 5600  6646  6645 1
 5601  6647  6645 1
 5602  6648  6645 1
 5603  6649  6648 1
 5604  6651  6650 1
 5605  6652  6651 1
 5606  6653  6651 1
 5607  6654  6651 1
 5608  6655  6654 1
 5609  6657  6656 1
 5610  6658  6657 1
 5611  6659  6657 1
 5612  6660  6657 1
 5613  6661  6660 1
 5614  6663  6662 1
 5615  6664  6663 1
 5616  6665  6663 1
 5617  6666  6663 1
 5618  6667  6666 1
 5619  6669  6668 1
 5620  6670  6669 1
 5621  6671  6669 1
 5622  6672  6669 1
 5623  6673  6672 1
 5624  6675  6674 1
 5625  6676  6675 1
 5626  6677  6675 1
 5627  6678  6675 1
 5628  6679  6678 1
 5629  6681  6680 1
 5630  6682  6681 1
 5631  6683  6681 1
 5632  6684  6681 1
 5633  6685  6684 1
 5634  6687  6686 1
 5635  6688  6687 1
 5636  6689  6687 1
 5637  6690  6687 1
 5638  6691  6690 1
 5639  6693  6692 1
 5640  6694  6693 1
 5641  6695  6693 1
 5642  6696  6693 1
 5643  6697  6696 1
 5644  6699  6698 1
 5645  6700  6699 1
 5646  6701  6699 1
 5647  6702  6699 1
 5648  6703  6702 1
 5649  6705  6704 1
 5650  6706  6705 1
 5651  6707  6705 1
 5652  6708  6705 1
 5653  6709  6708 1
 5654  6711  6710 1
 5655  6712  6711 1
 5656  6713  6711 1
 5657  6714  6711 1
 5658  6715  6714 1
 5659  6717  6716 1
 5660  6718  6717 1
 5661  6719  6717 1
 5662  6720  6717 1
 5663  6721  6720 1
 5664  6723  6722 1
 5665  6724  6723 1
 5666  6725  6723 1
 5667  6726  6723 1
 5668  6727  6726 1
 5669  6729  6728 1
 5670  6730  6729 1
 5671  6731  6729 1
 5672  6732  6729 1
 5673  6733  6732 1
 5674  6735  6734 1
 5675  6736  6735 1
 5676  6737  6735 1
 5677  6738  6735 1
 5678  6739  6738 1
 5679  6741  6740 1
 5680  6742  6741 1
 5681  6743  6741 1
 5682  6744  6741 1
 5683  6745  6744 1
 5684  6747  6746 1
 5685  6748  6747 1
 5686  6749  6747 1
 5687  6750  6747 1
 5688  6751  6750 1
 5689  6753  6752 1
 5690  6754  6753 1
 5691  6755  6753 1
 5692  6756  6753 1
 5693  6757  6756 1
 5694  6759  6758 1
 5695  6760  6759 1
 5696  6761  6759 1
 5697  6762  6759 1
 5698  6763  6762 1
 5699  6765  6764 1
 5700  6766  6765 1
 5701  6767  6765 1
 5702  6768  6765 1
 5703  6769  6768 1
 5704  6771  6770 1
 5705  6772  6771 1
 5706  6773  6771 1
 5707  6774  6771 1
 5708  6775  6774 1
 5709  6777  6776 1
 5710  6778  6777 1
 5711  6779  6777 1
 5712  6780  6777 1
 5713  6781  6780 1
 5714  6783  6782 1
 5715  6784  6783 1
 5716  6785  6783 1
 5717  6786  6783 1
 5718  6787  6786 1
 5719  6789  6788 1
 5720  6790  6789 1
 5721  6791  6789 1
 5722  6792  6789 1
 5723  6793  6792 1
 5724  6795  6794 1
 5725  6796  6795 1
 5726  6797  6795 1
 5727  6798  6795 1
 5728  6799  6798 1
 5729  6801  6800 1
 5730  6802  6801 1
 5731  6803  6801 1
 5732  6804  6801 1
 5733  6805  6804 1
 5734  6807  6806 1
 5735  6808  6807 1
 5736  6809  6807 1
 5737  6810  6807 1
 5738  6811  6810 1
 5739  6813  6812 1
 5740  6814  6813 1
 5741  6815  6813 1
 5742  6816  6813 1
 5743  6817  6816 1
 5744  6819  6818 1
 5745  6820  6819 1
 5746  6821  6819 1
 5747  6822  6819 1
 5748  6823  6822 1
 5749  6825  6824 1
 5750  6826  6825 1
 5751  6827  6825 1
 5752  6828  6825 1
 5753  6829  6828 1
 5754  6831  6830 1
 5755  6832  6831 1
 5756  6833  6831 1
 5757  6834  6831 1
 5758  6835  6834 1
 5759  6837  6836 1
 5760  6838  6837 1
 5761  6839  6837 1
 5762  6840  6837 1
 5763  6841  6840 1
 5764  6843  6842 1
 5765  6844  6843 1
 5766  6845  6843 1
 5767  6846  6843 1
 5768  6847  6846 1
 5769  6849  6848 1
 5770  6850  6849 1
 5771  6851  6849 1
 5772  6852  6849 1
 5773  6853  6852 1
 5774  6855  6854 1
 5775  6856  6855 1
 5776  6857  6855 1
 5777  6858  6855 1
 5778  6859  6858 1
 5779  6861  6860 1
 5780  6862  6861 1
 5781  6863  6861 1
 5782  6864  6861 1
 5783  6865  6864 1
 5784  6867  6866 1
 5785  6868  6867 1
 5786  6869  6867 1
 5787  6870  6867 1
 5788  6871  6870 1
 5789  6873  6872 1
 5790  6874  6873 1
 5791  6875  6873 1
 5792  6876  6873 1
 5793  6877  6876 1
 5794  6879  6878 1
 5795  6880  6879 1
 5796  6881  6879 1
 5797  6882  6879 1
 5798  6883  6882 1
 5799  6885  6884 1
 5800  6886  6885 1
 5801  6887  6885 1
 5802  6888  6885 1
 5803  6889  6888 1
 5804  6891  6890 1
 5805  6892  6891 1
 5806  6893  6891 1
 5807  6894  6891 1
 5808  6895  6894 1
 5809  6897  6896 1
 5810  6898  6897 1
 5811  6899  6897 1
 5812  6900  6897 1
 5813  6901  6900 1
 5814  6903  6902 1
 5815  6904  6903 1
 5816  6905  6903 1
 5817  6906  6903 1
 5818  6907  6906 1
 5819  6909  6908 1
 5820  6910  6909 1
 5821  6911  6909 1
 5822  6912  6909 1
 5823  6913  6912 1
 5824  6915  6914 1
 5825  6916  6915 1
 5826  6917  6915 1
 5827  6918  6915 1
 5828  6919  6918 1
 5829  6921  6920 1
 5830  6922  6921 1
 5831  6923  6921 1
 5832  6924  6921 1
 5833  6925  6924 1
 5834  6927  6926 1
 5835  6928  6927 1
 5836  6929  6927 1
 5837  6930  6927 1
 5838  6931  6930 1
 5839  6933  6932 1
 5840  6934  6933 1
 5841  6935  6933 1
 5842  6936  6933 1
 5843  6937  6936 1
 5844  6939  6938 1
 5845  6940  6939 1
 5846  6941  6939 1
 5847  6942  6939 1
 5848  6943  6942 1
 5849  6945  6944 1
 5850  6946  6945 1
 5851  6947  6945 1
 5852  6948  6945 1
 5853  6949  6948 1
 5854  6951  6950 1
 5855  6952  6951 1
 5856  6953  6951 1
 5857  6954  6951 1
 5858  6955  6954 1
 5859  6957  6956 1
 5860  6958  6957 1
 5861  6959  6957 1
 5862  6960  6957 1
 5863  6961  6960 1
 5864  6963  6962 1
 5865  6964  6963 1
 5866  6965  6963 1
 5867  6966  6963 1
 5868  6967  6966 1
 5869  6969  6968 1
 5870  6970  6969 1
 5871  6971  6969 1
 5872  6972  6969 1
 5873  6973  6972 1
 5874  6975  6974 1
 5875  6976  6975 1
 5876  6977  6975 1
 5877  6978  6975 1
 5878  6979  6978 1
 5879  6981  6980 1
 5880  6982  6981 1
 5881  6983  6981 1
 5882  6984  6981 1
 5883  6985  6984 1
 5884  6987  6986 1
 5885  6988  6987 1
 5886  6989  6987 1
 5887  6990  6987 1
 5888  6991  6990 1
 5889  6993  6992 1
 5890  6994  6993 1
 5891  6995  6993 1
 5892  6996  6993 1
 5893  6997  6996 1
 5894  6999  6998 1
 5895  7000  6999 1
 5896  7001  6999 1
 5897  7002  6999 1
 5898  7003  7002 1
 5899  7005  7004 1
 5900  7006  7005 1
 5901  7007  7005 1
 5902  7008  7005 1
 5903  7009  7008 1
 5904  7011  7010 1
 5905  7012  7011 1
 5906  7013  7011 1
 5907  7014  7011 1
 5908  7015  7014 1
 5909  7017  7016 1
 5910  7018  7017 1
 5911  7019  7017 1
 5912  7020  7017 1
 5913  7021  7020 1
 5914  7023  7022 1
 5915  7024  7023 1
 5916  7025  7023 1
 5917  7026  7023 1
 5918  7027  7026 1
 5919  7029  7028 1
 5920  7030  7029 1
 5921  7031  7029 1
 5922  7032  7029 1
 5923  7033  7032 1
 5924  7035  7034 1
 5925  7036  7035 1
 5926  7037  7035 1
 5927  7038  7035 1
 5928  7039  7038 1
 5929  7041  7040 1
 5930  7042  7041 1
 5931  7043  7041 1
 5932  7044  7041 1
 5933  7045  7044 1
 5934  7047  7046 1
 5935  7048  7047 1
 5936  7049  7047 1
 5937  7050  7047 1
 5938  7051  7050 1
 5939  7053  7052 1
 5940  7054  7053 1
 5941  7055  7053 1
 5942  7056  7053 1
 5943  7057  7056 1
 5944  7059  7058 1
 5945  7060  7059 1
 5946  7061  7059 1
 5947  7062  7059 1
 5948  7063  7062 1
 5949  7065  7064 1
 5950  7066  7065 1
 5951  7067  7065 1
 5952  7068  7065 1
 5953  7069  7068 1
 5954  7071  7070 1
 5955  7072  7071 1
 5956  7073  7071 1
 5957  7074  7071 1
 5958  7075  7074 1
 5959  7077  7076 1
 5960  7078  7077 1
 5961  7079  7077 1
 5962  7080  7077 1
 5963  7081  7080 1
 5964  7083  7082 1
 5965  7084  7083 1
 5966  7085  7083 1
 5967  7086  7083 1
 5968  7087  7086 1
 5969  7089  7088 1
 5970  7090  7089 1
 5971  7091  7089 1
 5972  7092  7089 1
 5973  7093  7092 1
 5974  7095  7094 1
 5975  7096  7095 1
 5976  7097  7095 1
 5977  7098  7095 1
 5978  7099  7098 1
 5979  7101  7100 1
 5980  7102  7101 1
 5981  7103  7101 1
 5982  7104  7101 1
 5983  7105  7104 1
 5984  7107  7106 1
 5985  7108  7107 1
 5986  7109  7107 1
 5987  7110  7107 1
 5988  7111  7110 1
 5989  7113  7112 1
 5990  7114  7113 1
 5991  7115  7113 1
 5992  7116  7113 1
 5993  7117  7116 1
 5994  7119  7118 1
 5995  7120  7119 1
 5996  7121  7119 1
 5997  7122  7119 1
 5998  7123  7122 1
 5999  7125  7124 1
 6000  7126  7125 1
 6001  7127  7125 1
 6002  7128  7125 1
 6003  7129  7128 1
 6004  7131  7130 1
 6005  7132  7131 1
 6006  7133  7131 1
 6007  7134  7131 1
 6008  7135  7134 1
 6009  7137  7136 1
 6010  7138  7137 1
 6011  7139  7137 1
 6012  7140  7137 1
 6013  7141  7140 1
 6014  7143  7142 1
 6015  7144  7143 1
 6016  7145  7143 1
 6017  7146  7143 1
 6018  7147  7146 1
 6019  7149  7148 1
 6020  7150  7149 1
 6021  7151  7149 1
 6022  7152  7149 1
 6023  7153  7152 1
 6024  7155  7154 1
 6025  7156  7155 1
 6026  7157  7155 1
 6027  7158  7155 1
 6028  7159  7158 1
 6029  7161  7160 1
 6030  7162  7161 1
 6031  7163  7161 1
 6032  7164  7161 1
 6033  7165  7164 1
 6034  7167  7166 1
 6035  7168  7167 1
 6036  7169  7167 1
 6037  7170  7167 1
 6038  7171  7170 1
 6039  7173  7172 1
 6040  7174  7173 1
 6041  7175  7173 1
 6042  7176  7173 1
 6043  7177  7176 1
 6044  7179  7178 1
 6045  7180  7179 1
 6046  7181  7179 1
 6047  7182  7179 1
 6048  7183  7182 1
 6049  7185  7184 1
 6050  7186  7185 1
 6051  7187  7185 1
 6052  7188  7185 1
 6053  7189  7188 1
 6054  7191  7190 1
 6055  7192  7191 1
 6056  7193  7191 1
 6057  7194  7191 1
 6058  7195  7194 1
 6059  7197  7196 1
 6060  7198  7197 1
 6061  7199  7197 1
 6062  7200  7197 1
 6063  7201  7200 1
 6064  7203  7202 1
 6065  7204  7203 1
 6066  7205  7203 1
 6067  7206  7203 1
 6068  7207  7206 1
 6069  7209  7208 1
 6070  7210  7209 1
 6071  7211  7209 1
 6072  7212  7209 1
 6073  7213  7212 1
 6074  7215  7214 1
 6075  7216  7215 1
 6076  7217  7215 1
 6077  7218  7215 1
 6078  7219  7218 1
 6079  7221  7220 1
 6080  7222  7221 1
 6081  7223  7221 1
 6082  7224  7221 1
 6083  7225  7224 1
 6084  7227  7226 1
 6085  7228  7227 1
 6086  7229  7227 1
 6087  7230  7227 1
 6088  7231  7230 1
 6089  7233  7232 1
 6090  7234  7233 1
 6091  7235  7233 1
 6092  7236  7233 1
 6093  7237  7236 1
 6094  7239  7238 1
 6095  7240  7239 1
 6096  7241  7239 1
 6097  7242  7239 1
 6098  7243  7242 1
 6099  7245  7244 1
 6100  7246  7245 1
 6101  7247  7245 1
 6102  7248  7245 1
 6103  7249  7248 1
 6104  7251  7250 1
 6105  7252  7251 1
 6106  7253  7251 1
 6107  7254  7251 1
 6108  7255  7254 1
 6109  7257  7256 1
 6110  7258  7257 1
 6111  7259  7257 1
 6112  7260  7257 1
 6113  7261  7260 1
 6114  7263  7262 1
 6115  7264  7263 1
 6116  7265  7263 1
 6117  7266  7263 1
 6118  7267  7266 1
 6119  7269  7268 1
 6120  7270  7269 1
 6121  7271  7269 1
 6122  7272  7269 1
 6123  7273  7272 1
 6124  7275  7274 1
 6125  7276  7275 1
 6126  7277  7275 1
 6127  7278  7275 1
 6128  7279  7278 1
 6129  7281  7280 1
 6130  7282  7281 1
 6131  7283  7281 1
 6132  7284  7281 1
 6133  7285  7284 1
 6134  7287  7286 1
 6135  7288  7287 1
 6136  7289  7287 1
 6137  7290  7287 1
 6138  7291  7290 1
 6139  7293  7292 1
 6140  7294  7293 1
 6141  7295  7293 1
 6142  7296  7293 1
 6143  7297  7296 1
 6144  7299  7298 1
 6145  7300  7299 1
 6146  7301  7299 1
 6147  7302  7299 1
 6148  7303  7302 1
 6149  7305  7304 1
 6150  7306  7305 1
 6151  7307  7305 1
 6152  7308  7305 1
 6153  7309  7308 1
 6154  7311  7310 1
 6155  7312  7311 1
 6156  7313  7311 1
 6157  7314  7311 1
 6158  7315  7314 1
 6159  7317  7316 1
 6160  7318  7317 1
 6161  7319  7317 1
 6162  7320  7317 1
 6163  7321  7320 1
 6164  7323  7322 1
 6165  7324  7323 1
 6166  7325  7323 1
 6167  7326  7323 1
 6168  7327  7326 1
 6169  7329  7328 1
 6170  7330  7329 1
 6171  7331  7329 1
 6172  7332  7329 1
 6173  7333  7332 1
 6174  7335  7334 1
 6175  7336  7335 1
 6176  7337  7335 1
 6177  7338  7335 1
 6178  7339  7338 1
 6179  7341  7340 1
 6180  7342  7341 1
 6181  7343  7341 1
 6182  7344  7341 1
 6183  7345  7344 1
 6184  7347  7346 1
 6185  7348  7347 1
 6186  7349  7347 1
 6187  7350  7347 1
 6188  7351  7350 1
 6189  7353  7352 1
 6190  7354  7353 1
 6191  7355  7353 1
 6192  7356  7353 1
 6193  7357  7356 1
 6194  7359  7358 1
 6195  7360  7359 1
 6196  7361  7359 1
 6197  7362  7359 1
 6198  7363  7362 1
 6199  7365  7364 1
 6200  7366  7365 1
 6201  7367  7365 1
 6202  7368  7365 1
 6203  7369  7368 1
 6204  7371  7370 1
 6205  7372  7371 1
 6206  7373  7371 1
 6207  7374  7371 1
 6208  7375  7374 1
 6209  7377  7376 1
 6210  7378  7377 1
 6211  7379  7377 1
 6212  7380  7377 1
 6213  7381  7380 1
 6214  7383  7382 1
 6215  7384  7383 1
 6216  7385  7383 1
 6217  7386  7383 1
 6218  7387  7386 1
 6219  7389  7388 1
 6220  7390  7389 1
 6221  7391  7389 1
 6222  7392  7389 1
 6223  7393  7392 1
 6224  7395  7394 1
 6225  7396  7395 1
 6226  7397  7395 1
 6227  7398  7395 1
 6228  7399  7398 1
 6229  7401  7400 1
 6230  7402  7401 1
 6231  7403  7401 1
 6232  7404  7401 1
 6233  7405  7404 1
 6234  7407  7406 1
 6235  7408  7407 1
 6236  7409  7407 1
 6237  7410  7407 1
 6238  7411  7410 1
 6239  7413  7412 1
 6240  7414  7413 1
 6241  7415  7413 1
 6242  7416  7413 1
 6243  7417  7416 1
 6244  7419  7418 1
 6245  7420  7419 1
 6246  7421  7419 1
 6247  7422  7419 1
 6248  7423  7422 1
 6249  7425  7424 1
 6250  7426  7425 1
 6251  7427  7425 1
 6252  7428  7425 1
 6253  7429  7428 1
 6254  7431  7430 1
 6255  7432  7431 1
 6256  7433  7431 1
 6257  7434  7431 1
 6258  7435  7434 1
 6259  7437  7436 1
 6260  7438  7437 1
 6261  7439  7437 1
 6262  7440  7437 1
 6263  7441  7440 1
 6264  7443  7442 1
 6265  7444  7443 1
 6266  7445  7443 1
 6267  7446  7443 1
 6268  7447  7446 1
 6269  7449  7448 1
 6270  7450  7449 1
 6271  7451  7449 1
 6272  7452  7449 1
 6273  7453  7452 1
 6274  7455  7454 1
 6275  7456  7455 1
 6276  7457  7455 1
 6277  7458  7455 1
 6278  7459  7458 1
 6279  7461  7460 1
 6280  7462  7461 1
 6281  7463  7461 1
 6282  7464  7461 1
 6283  7465  7464 1
 6284  7467  7466 1
 6285  7468  7467 1
 6286  7469  7467 1
 6287  7470  7467 1
 6288  7471  7470 1
 6289  7473  7472 1
 6290  7474  7473 1
 6291  7475  7473 1
 6292  7476  7473 1
 6293  7477  7476 1
 6294  7479  7478 1
 6295  7480  7479 1
 6296  7481  7479 1
 6297  7482  7479 1
 6298  7483  7482 1
 6299  7485  7484 1
 6300  7486  7485 1
 6301  7487  7485 1
 6302  7488  7485 1
 6303  7489  7488 1
 6304  7491  7490 1
 6305  7492  7491 1
 6306  7493  7491 1
 6307  7494  7491 1
 6308  7495  7494 1
 6309  7497  7496 1
 6310  7498  7497 1
 6311  7499  7497 1
 6312  7500  7497 1
 6313  7501  7500 1
 6314  7503  7502 1
 6315  7504  7503 1
 6316  7505  7503 1
 6317  7506  7503 1
 6318  7507  7506 1
 6319  7509  7508 1
 6320  7510  7509 1
 6321  7511  7509 1
 6322  7512  7509 1
 6323  7513  7512 1
 6324  7515  7514 1
 6325  7516  7515 1
 6326  7517  7515 1
 6327  7518  7515 1
 6328  7519  7518 1
 6329  7521  7520 1
 6330  7522  7521 1
 6331  7523  7521 1
 6332  7524  7521 1
 6333  7525  7524 1
 6334  7527  7526 1
 6335  7528  7527 1
 6336  7529  7527 1
 6337  7530  7527 1
 6338  7531  7530 1
 6339  7533  7532 1
 6340  7534  7533 1
 6341  7535  7533 1
 6342  7536  7533 1
 6343  7537  7536 1
 6344  7539  7538 1
 6345  7540  7539 1
 6346  7541  7539 1
 6347  7542  7539 1
 6348  7543  7542 1
 6349  7545  7544 1
 6350  7546  7545 1
 6351  7547  7545 1
 6352  7548  7545 1
 6353  7549  7548 1
 6354  7551  7550 1
 6355  7552  7551 1
 6356  7553  7551 1
 6357  7554  7551 1
 6358  7555  7554 1
 6359  7557  7556 1
 6360  7558  7557 1
 6361  7559  7557 1
 6362  7560  7557 1
 6363  7561  7560 1
 6364  7563  7562 1
 6365  7564  7563 1
 6366  7565  7563 1
 6367  7566  7563 1
 6368  7567  7566 1
 6369  7569  7568 1
 6370  7570  7569 1
 6371  7571  7569 1
 6372  7572  7569 1
 6373  7573  7572 1
 6374  7575  7574 1
 6375  7576  7575 1
 6376  7577  7575 1
 6377  7578  7575 1
 6378  7579  7578 1
 6379  7581  7580 1
 6380  7582  7581 1
 6381  7583  7581 1
 6382  7584  7581 1
 6383  7585  7584 1
 6384  7587  7586 1
 6385  7588  7587 1
 6386  7589  7587 1
 6387  7590  7587 1
 6388  7591  7590 1
 6389  7593  7592 1
 6390  7594  7593 1
 6391  7595  7593 1
 6392  7596  7593 1
 6393  7597  7596 1
 6394  7599  7598 1
 6395  7600  7599 1
 6396  7601  7599 1
 6397  7602  7599 1
 6398  7603  7602 1
 6399  7605  7604 1
 6400  7606  7605 1
 6401  7607  7605 1
 6402  7608  7605 1
 6403  7609  7608 1
 6404  7611  7610 1
 6405  7612  7611 1
 6406  7613  7611 1
 6407  7614  7611 1
 6408  7615  7614 1
 6409  7617  7616 1
 6410  7618  7617 1
 6411  7619  7617 1
 6412  7620  7617 1
 6413  7621  7620 1
 6414  7623  7622 1
 6415  7624  7623 1
 6416  7625  7623 1
 6417  7626  7623 1
 6418  7627  7626 1
 6419  7629  7628 1
 6420  7630  7629 1
 6421  7631  7629 1
 6422  7632  7629 1
 6423  7633  7632 1
 6424  7635  7634 1
 6425  7636  7635 1
 6426  7637  7635 1
 6427  7638  7635 1
 6428  7639  7638 1
 6429  7641  7640 1
 6430  7642  7641 1
 6431  7643  7641 1
 6432  7644  7641 1
 6433  7645  7644 1
 6434  7647  7646 1
 6435  7648  7647 1
 6436  7649  7647 1
 6437  7650  7647 1
 6438  7651  7650 1
 6439  7653  7652 1
 6440  7654  7653 1
 6441  7655  7653 1
 6442  7656  7653 1
 6443  7657  7656 1
 6444  7659  7658 1
 6445  7660  7659 1
 6446  7661  7659 1
 6447  7662  7659 1
 6448  7663  7662 1
 6449  7665  7664 1
 6450  7666  7665 1
 6451  7667  7665 1
 6452  7668  7665 1
 6453  7669  7668 1
 6454  7671  7670 1
 6455  7672  7671 1
 6456  7673  7671 1
 6457  7674  7671 1
 6458  7675  7674 1
 6459  7677  7676 1
 6460  7678  7677 1
 6461  7679  7677 1
 6462  7680  7677 1
 6463  7681  7680 1
 6464  7683  7682 1
 6465  7684  7683 1
 6466  7685  7683 1
 6467  7686  7683 1
 6468  7687  7686 1
 6469  7689  7688 1
 6470  7690  7689 1
 6471  7691  7689 1
 6472  7692  7689 1
 6473  7693  7692 1
 6474  7695  7694 1
 6475  7696  7695 1
 6476  7697  7695 1
 6477  7698  7695 1
 6478  7699  7698 1
 6479  7701  7700 1
 6480  7702  7701 1
 6481  7703  7701 1
 6482  7704  7701 1
 6483  7705  7704 1
 6484  7707  7706 1
 6485  7708  7707 1
 6486  7709  7707 1
 6487  7710  7707 1
 6488  7711  7710 1
 6489  7713  7712 1
 6490  7714  7713 1
 6491  7715  7713 1
 6492  7716  7713 1
 6493  7717  7716 1
 6494  7719  7718 1
 6495  7720  7719 1
 6496  7721  7719 1
 6497  7722  7719 1
 6498  7723  7722 1
 6499  7725  7724 1
 6500  7726  7725 1
 6501  7727  7725 1
 6502  7728  7725 1
 6503  7729  7728 1
 6504  7731  7730 1
 6505  7732  7731 1
 6506  7733  7731 1
 6507  7734  7731 1
 6508  7735  7734 1
 6509  7737  7736 1
 6510  7738  7737 1
 6511  7739  7737 1
 6512  7740  7737 1
 6513  7741  7740 1
 6514  7743  7742 1
 6515  7744  7743 1
 6516  7745  7743 1
 6517  7746  7743 1
 6518  7747  7746 1
 6519  7749  7748 1
 6520  7750  7749 1
 6521  7751  7749 1
 6522  7752  7749 1
 6523  7753  7752 1
 6524  7755  7754 1
 6525  7756  7755 1
 6526  7757  7755 1
 6527  7758  7755 1
 6528  7759  7758 1
 6529  7761  7760 1
 6530  7762  7761 1
 6531  7763  7761 1
 6532  7764  7761 1
 6533  7765  7764 1
 6534  7767  7766 1
 6535  7768  7767 1
 6536  7769  7767 1
 6537  7770  7767 1
 6538  7771  7770 1
 6539  7773  7772 1
 6540  7774  7773 1
 6541  7775  7773 1
 6542  7776  7773 1
 6543  7777  7776 1
 6544  7779  7778 1
 6545  7780  7779 1
 6546  7781  7779 1
 6547  7782  7779 1
 6548  7783  7782 1
 6549  7785  7784 1
 6550  7786  7785 1
 6551  7787  7785 1
 6552  7788  7785 1
 6553  7789  7788 1
 6554  7791  7790 1
 6555  7792  7791 1
 6556  7793  7791 1
 6557  7794  7791 1
 6558  7795  7794 1
 6559  7797  7796 1
 6560  7798  7797 1
 6561  7799  7797 1
 6562  7800  7797 1
 6563  7801  7800 1
 6564  7803  7802 1
 6565  7804  7803 1
 6566  7805  7803 1
 6567  7806  7803 1
 6568  7807  7806 1
 6569  7809  7808 1
 6570  7810  7809 1
 6571  7811  7809 1
 6572  7812  7809 1
 6573  7813  7812 1
 6574  7815  7814 1
 6575  7816  7815 1
 6576  7817  7815 1
 6577  7818  7815 1
 6578  7819  7818 1
 6579  7821  7820 1
 6580  7822  7821 1
 6581  7823  7821 1
 6582  7824  7821 1
 6583  7825  7824 1
 6584  7827  7826 1
 6585  7828  7827 1
 6586  7829  7827 1
 6587  7830  7827 1
 6588  7831  7830 1
 6589  7833  7832 1
 6590  7834  7833 1
 6591  7835  7833 1
 6592  7836  7833 1
 6593  7837  7836 1
 6594  7839  7838 1
 6595  7840  7839 1
 6596  7841  7839 1
 6597  7842  7839 1
 6598  7843  7842 1
 6599  7845  7844 1
 6600  7846  7845 1
 6601  7847  7845 1
 6602  7848  7845 1
 6603  7849  7848 1
 6604  7851  7850 1
 6605  7852  7851 1
 6606  7853  7851 1
 6607  7854  7851 1
 6608  7855  7854 1
 6609  7857  7856 1
 6610  7858  7857 1
 6611  7859  7857 1
 6612  7860  7857 1
 6613  7861  7860 1
 6614  7863  7862 1
 6615  7864  7863 1
 6616  7865  7863 1
 6617  7866  7863 1
 6618  7867  7866 1
 6619  7869  7868 1
 6620  7870  7869 1
 6621  7871  7869 1
 6622  7872  7869 1
 6623  7873  7872 1
 6624  7875  7874 1
 6625  7876  7875 1
 6626  7877  7875 1
 6627  7878  7875 1
 6628  7879  7878 1
 6629  7881  7880 1
 6630  7882  7881 1
 6631  7883  7881 1
 6632  7884  7881 1
 6633  7885  7884 1
 6634  7887  7886 1
 6635  7888  7887 1
 6636  7889  7887 1
 6637  7890  7887 1
 6638  7891  7890 1
 6639  7893  7892 1
 6640  7894  7893 1
 6641  7895  7893 1
 6642  7896  7893 1
 6643  7897  7896 1
 6644  7899  7898 1
 6645  7900  7899 1
 6646  7901  7899 1
 6647  7902  7899 1
 6648  7903  7902 1
 6649  7905  7904 1
 6650  7906  7905 1
 6651  7907  7905 1
 6652  7908  7905 1
 6653  7909  7908 1
 6654  7911  7910 1
 6655  7912  7911 1
 6656  7913  7911 1
 6657  7914  7911 1
 6658  7915  7914 1
 6659  7917  7916 1
 6660  7918  7917 1
 6661  7919  7917 1
 6662  7920  7917 1
 6663  7921  7920 1
 6664  7923  7922 1
 6665  7924  7923 1
 6666  7925  7923 1
 6667  7926  7923 1
 6668  7927  7926 1
 6669  7929  7928 1
 6670  7930  7929 1
 6671  7931  7929 1
 6672  7932  7929 1
 6673  7933  7932 1
 6674  7935  7934 1
 6675  7936  7935 1
 6676  7937  7935 1
 6677  7938  7935 1
 6678  7939  7938 1
 6679  7941  7940 1
 6680  7942  7941 1
 6681  7943  7941 1
 6682  7944  7941 1
 6683  7945  7944 1
 6684  7947  7946 1
 6685  7948  7947 1
 6686  7949  7947 1
 6687  7950  7947 1
 6688  7951  7950 1
 6689  7953  7952 1
 6690  7954  7953 1
 6691  7955  7953 1
 6692  7956  7953 1
 6693  7957  7956 1
 6694  7959  7958 1
 6695  7960  7959 1
 6696  7961  7959 1
 6697  7962  7959 1
 6698  7963  7962 1
 6699  7965  7964 1
 6700  7966  7965 1
 6701  7967  7965 1
 6702  7968  7965 1
 6703  7969  7968 1
 6704  7971  7970 1
 6705  7972  7971 1
 6706  7973  7971 1
 6707  7974  7971 1
 6708  7975  7974 1
 6709  7977  7976 1
 6710  7978  7977 1
 6711  7979  7977 1
 6712  7980  7977 1
 6713  7981  7980 1
 6714  7983  7982 1
 6715  7984  7983 1
 6716  7985  7983 1
 6717  7986  7983 1
 6718  7987  7986 1
 6719  7989  7988 1
 6720  7990  7989 1
 6721  7991  7989 1
 6722  7992  7989 1
 6723  7993  7992 1
 6724  7995  7994 1
 6725  7996  7995 1
 6726  7997  7995 1
 6727  7998  7995 1
 6728  7999  7998 1
 6729  8001  8000 1
 6730  8002  8001 1
 6731  8003  8001 1
 6732  8004  8001 1
 6733  8005  8004 1
 6734  8007  8006 1
 6735  8008  8007 1
 6736  8009  8007 1
 6737  8010  8007 1
 6738  8011  8010 1
 6739  8013  8012 1
 6740  8014  8013 1
 6741  8015  8013 1
 6742  8016  8013 1
 6743  8017  8016 1
 6744  8019  8018 1
 6745  8020  8019 1
 6746  8021  8019 1
 6747  8022  8019 1
 6748  8023  8022 1
 6749  8025  8024 1
 6750  8026  8025 1
 6751  8027  8025 1
 6752  8028  8025 1
 6753  8029  8028 1
 6754  8031  8030 1
 6755  8032  8031 1
 6756  8033  8031 1
 6757  8034  8031 1
 6758  8035  8034 1
 6759  8037  8036 1
 6760  8038  8037 1
 6761  8039  8037 1
 6762  8040  8037 1
 6763  8041  8040 1
 6764  8043  8042 1
 6765  8044  8043 1
 6766  8045  8043 1
 6767  8046  8043 1
 6768  8047  8046 1
 6769  8049  8048 1
 6770  8050  8049 1
 6771  8051  8049 1
 6772  8052  8049 1
 6773  8053  8052 1
 6774  8055  8054 1
 6775  8056  8055 1
 6776  8057  8055 1
 6777  8058  8055 1
 6778  8059  8058 1
 6779  8061  8060 1
 6780  8062  8061 1
 6781  8063  8061 1
 6782  8064  8061 1
 6783  8065  8064 1
 6784  8067  8066 1
 6785  8068  8067 1
 6786  8069  8067 1
 6787  8070  8067 1
 6788  8071  8070 1
 6789  8073  8072 1
 6790  8074  8073 1
 6791  8075  8073 1
 6792  8076  8073 1
 6793  8077  8076 1
 6794  8079  8078 1
 6795  8080  8079 1
 6796  8081  8079 1
 6797  8082  8079 1
 6798  8083  8082 1
 6799  8085  8084 1
 6800  8086  8085 1
 6801  8087  8085 1
 6802  8088  8085 1
 6803  8089  8088 1
 6804  8091  8090 1
 6805  8092  8091 1
 6806  8093  8091 1
 6807  8094  8091 1
 6808  8095  8094 1
 6809  8097  8096 1
 6810  8098  8097 1
 6811  8099  8097 1
 6812  8100  8097 1
 6813  8101  8100 1
 6814  8103  8102 1
 6815  8104  8103 1
 6816  8105  8103 1
 6817  8106  8103 1
 6818  8107  8106 1
 6819  8109  8108 1
 6820  8110  8109 1
 6821  8111  8109 1
 6822  8112  8109 1
 6823  8113  8112 1
 6824  8115  8114 1
 6825  8116  8115 1
 6826  8117  8115 1
 6827  8118  8115 1
 6828  8119  8118 1
 6829  8121  8120 1
 6830  8122  8121 1
 6831  8123  8121 1
 6832  8124  8121 1
 6833  8125  8124 1
 6834  8127  8126 1
 6835  8128  8127 1
 6836  8129  8127 1
 6837  8130  8127 1
 6838  8131  8130 1
 6839  8133  8132 1
 6840  8134  8133 1
 6841  8135  8133 1
 6842  8136  8133 1
 6843  8137  8136 1
 6844  8139  8138 1
 6845  8140  8139 1
 6846  8141  8139 1
 6847  8142  8139 1
 6848  8143  8142 1
 6849  8145  8144 1
 6850  8146  8145 1
 6851  8147  8145 1
 6852  8148  8145 1
 6853  8149  8148 1
 6854  8151  8150 1
 6855  8152  8151 1
 6856  8153  8151 1
 6857  8154  8151 1
 6858  8155  8154 1
 6859  8157  8156 1
 6860  8158  8157 1
 6861  8159  8157 1
 6862  8160  8157 1
 6863  8161  8160 1
 6864  8163  8162 1
 6865  8164  8163 1
 6866  8165  8163 1
 6867  8166  8163 1
 6868  8167  8166 1
 6869  8169  8168 1
 6870  8170  8169 1
 6871  8171  8169 1
 6872  8172  8169 1
 6873  8173  8172 1
 6874  8175  8174 1
 6875  8176  8175 1
 6876  8177  8175 1
 6877  8178  8175 1
 6878  8179  8178 1
 6879  8181  8180 1
 6880  8182  8181 1
 6881  8183  8181 1
 6882  8184  8181 1
 6883  8185  8184 1
 6884  8187  8186 1
 6885  8188  8187 1
 6886  8189  8187 1
 6887  8190  8187 1
 6888  8191  8190 1
 6889  8193  8192 1
 6890  8194  8193 1
 6891  8195  8193 1
 6892  8196  8193 1
 6893  8197  8196 1
 6894  8199  8198 1
 6895  8200  8199 1
 6896  8201  8199 1
 6897  8202  8199 1
 6898  8203  8202 1
 6899  8205  8204 1
 6900  8206  8205 1
 6901  8207  8205 1
 6902  8208  8205 1
 6903  8209  8208 1
 6904  8211  8210 1
 6905  8212  8211 1
 6906  8213  8211 1
 6907  8214  8211 1
 6908  8215  8214 1
 6909  8217  8216 1
 6910  8218  8217 1
 6911  8219  8217 1
 6912  8220  8217 1
 6913  8221  8220 1
 6914  8223  8222 1
 6915  8224  8223 1
 6916  8225  8223 1
 6917  8226  8223 1
 6918  8227  8226 1
 6919  8229  8228 1
 6920  8230  8229 1
 6921  8231  8229 1
 6922  8232  8229 1
 6923  8233  8232 1
 6924  8235  8234 1
 6925  8236  8235 1
 6926  8237  8235 1
 6927  8238  8235 1
 6928  8239  8238 1
 6929  8241  8240 1
 6930  8242  8241 1
 6931  8243  8241 1
 6932  8244  8241 1
 6933  8245  8244 1
 6934  8247  8246 1
 6935  8248  8247 1
 6936  8249  8247 1
 6937  8250  8247 1
 6938  8251  8250 1
 6939  8253  8252 1
 6940  8254  8253 1
 6941  8255  8253 1
 6942  8256  8253 1
 6943  8257  8256 1
 6944  8259  8258 1
 6945  8260  8259 1
 6946  8261  8259 1
 6947  8262  8259 1
 6948  8263  8262 1
 6949  8265  8264 1
 6950  8266  8265 1
 6951  8267  8265 1
 6952  8268  8265 1
 6953  8269  8268 1
 6954  8271  8270 1
 6955  8272  8271 1
 6956  8273  8271 1
 6957  8274  8271 1
 6958  8275  8274 1
 6959  8277  8276 1
 6960  8278  8277 1
 6961  8279  8277 1
 6962  8280  8277 1
 6963  8281  8280 1
 6964  8283  8282 1
 6965  8284  8283 1
 6966  8285  8283 1
 6967  8286  8283 1
 6968  8287  8286 1
 6969  8289  8288 1
 6970  8290  8289 1
 6971  8291  8289 1
 6972  8292  8289 1
 6973  8293  8292 1
 6974  8295  8294 1
 6975  8296  8295 1
 6976  8297  8295 1
 6977  8298  8295 1
 6978  8299  8298 1
 6979  8301  8300 1
 6980  8302  8301 1
 6981  8303  8301 1
 6982  8304  8301 1
 6983  8305  8304 1
 6984  8307  8306 1
 6985  8308  8307 1
 6986  8309  8307 1
 6987  8310  8307 1
 6988  8311  8310 1
 6989  8313  8312 1
 6990  8314  8313 1
 6991  8315  8313 1
 6992  8316  8313 1
 6993  8317  8316 1
 6994  8319  8318 1
 6995  8320  8319 1
 6996  8321  8319 1
 6997  8322  8319 1
 6998  8323  8322 1
 6999  8325  8324 1
 7000  8326  8325 1
 7001  8327  8325 1
 7002  8328  8325 1
 7003  8329  8328 1
 7004  8331  8330 1
 7005  8332  8331 1
 7006  8333  8331 1
 7007  8334  8331 1
 7008  8335  8334 1
 7009  8337  8336 1
 7010  8338  8337 1
 7011  8339  8337 1
 7012  8340  8337 1
 7013  8341  8340 1
 7014  8343  8342 1
 7015  8344  8343 1
 7016  8345  8343 1
 7017  8346  8343 1
 7018  8347  8346 1
 7019  8349  8348 1
 7020  8350  8349 1
 7021  8351  8349 1
 7022  8352  8349 1
 7023  8353  8352 1
 7024  8355  8354 1
 7025  8356  8355 1
 7026  8357  8355 1
 7027  8358  8355 1
 7028  8359  8358 1
 7029  8361  8360 1
 7030  8362  8361 1
 7031  8363  8361 1
 7032  8364  8361 1
 7033  8365  8364 1
 7034  8367  8366 1
 7035  8368  8367 1
 7036  8369  8367 1
 7037  8370  8367 1
 7038  8371  8370 1
 7039  8373  8372 1
 7040  8374  8373 1
 7041  8375  8373 1
 7042  8376  8373 1
 7043  8377  8376 1
 7044  8379  8378 1
 7045  8380  8379 1
 7046  8381  8379 1
 7047  8382  8379 1
 7048  8383  8382 1
 7049  8385  8384 1
 7050  8386  8385 1
 7051  8387  8385 1
 7052  8388  8385 1
 7053  8389  8388 1
 7054  8391  8390 1
 7055  8392  8391 1
 7056  8393  8391 1
 7057  8394  8391 1
 7058  8395  8394 1
 7059  8397  8396 1
 7060  8398  8397 1
 7061  8399  8397 1
 7062  8400  8397 1
 7063  8401  8400 1
 7064  8403  8402 1
 7065  8404  8403 1
 7066  8405  8403 1
 7067  8406  8403 1
 7068  8407  8406 1
 7069  8409  8408 1
 7070  8410  8409 1
 7071  8411  8409 1
 7072  8412  8409 1
 7073  8413  8412 1
 7074  8415  8414 1
 7075  8416  8415 1
 7076  8417  8415 1
 7077  8418  8415 1
 7078  8419  8418 1
 7079  8421  8420 1
 7080  8422  8421 1
 7081  8423  8421 1
 7082  8424  8421 1
 7083  8425  8424 1
 7084  8427  8426 1
 7085  8428  8427 1
 7086  8429  8427 1
 7087  8430  8427 1
 7088  8431  8430 1
 7089  8433  8432 1
 7090  8434  8433 1
 7091  8435  8433 1
 7092  8436  8433 1
 7093  8437  8436 1
 7094  8439  8438 1
 7095  8440  8439 1
 7096  8441  8439 1
 7097  8442  8439 1
 7098  8443  8442 1
 7099  8445  8444 1
 7100  8446  8445 1
 7101  8447  8445 1
 7102  8448  8445 1
 7103  8449  8448 1
 7104  8451  8450 1
 7105  8452  8451 1
 7106  8453  8451 1
 7107  8454  8451 1
 7108  8455  8454 1
 7109  8457  8456 1
 7110  8458  8457 1
 7111  8459  8457 1
 7112  8460  8457 1
 7113  8461  8460 1
 7114  8463  8462 1
 7115  8464  8463 1
 7116  8465  8463 1
 7117  8466  8463 1
 7118  8467  8466 1
 7119  8469  8468 1
 7120  8470  8469 1
 7121  8471  8469 1
 7122  8472  8469 1
 7123  8473  8472 1
 7124  8475  8474 1
 7125  8476  8475 1
 7126  8477  8475 1
 7127  8478  8475 1
 7128  8479  8478 1
 7129  8481  8480 1
 7130  8482  8481 1
 7131  8483  8481 1
 7132  8484  8481 1
 7133  8485  8484 1
 7134  8487  8486 1
 7135  8488  8487 1
 7136  8489  8487 1
 7137  8490  8487 1
 7138  8491  8490 1
 7139  8493  8492 1
 7140  8494  8493 1
 7141  8495  8493 1
 7142  8496  8493 1
 7143  8497  8496 1
 7144  8499  8498 1
 7145  8500  8499 1
 7146  8501  8499 1
 7147  8502  8499 1
 7148  8503  8502 1
 7149  8505  8504 1
 7150  8506  8505 1
 7151  8507  8505 1
 7152  8508  8505 1
 7153  8509  8508 1
 7154  8511  8510 1
 7155  8512  8511 1
 7156  8513  8511 1
 7157  8514  8511 1
 7158  8515  8514 1
 7159  8517  8516 1
 7160  8518  8517 1
 7161  8519  8517 1
 7162  8520  8517 1
 7163  8521  8520 1
 7164  8523  8522 1
 7165  8524  8523 1
 7166  8525  8523 1
 7167  8526  8523 1
 7168  8527  8526 1
 7169  8529  8528 1
 7170  8530  8529 1
 7171  8531  8529 1
 7172  8532  8529 1
 7173  8533  8532 1
 7174  8535  8534 1
 7175  8536  8535 1
 7176  8537  8535 1
 7177  8538  8535 1
 7178  8539  8538 1
 7179  8541  8540 1
 7180  8542  8541 1
 7181  8543  8541 1
 7182  8544  8541 1
 7183  8545  8544 1
 7184  8547  8546 1
 7185  8548  8547 1
 7186  8549  8547 1
 7187  8550  8547 1
 7188  8551  8550 1
 7189  8553  8552 1
 7190  8554  8553 1
 7191  8555  8553 1
 7192  8556  8553 1
 7193  8557  8556 1
 7194  8559  8558 1
 7195  8560  8559 1
 7196  8561  8559 1
 7197  8562  8559 1
 7198  8563  8562 1
 7199  8565  8564 1
 7200  8566  8565 1
 7201  8567  8565 1
 7202  8568  8565 1
 7203  8569  8568 1
 7204  8571  8570 1
 7205  8572  8571 1
 7206  8573  8571 1
 7207  8574  8571 1
 7208  8575  8574 1
 7209  8577  8576 1
 7210  8578  8577 1
 7211  8579  8577 1
 7212  8580  8577 1
 7213  8581  8580 1
 7214  8583  8582 1
 7215  8584  8583 1
 7216  8585  8583 1
 7217  8586  8583 1
 7218  8587  8586 1
 7219  8589  8588 1
 7220  8590  8589 1
 7221  8591  8589 1
 7222  8592  8589 1
 7223  8593  8592 1
 7224  8595  8594 1
 7225  8596  8595 1
 7226  8597  8595 1
 7227  8598  8595 1
 7228  8599  8598 1
 7229  8601  8600 1
 7230  8602  8601 1
 7231  8603  8601 1
 7232  8604  8601 1
 7233  8605  8604 1
 7234  8607  8606 1
 7235  8608  8607 1
 7236  8609  8607 1
 7237  8610  8607 1
 7238  8611  8610 1
 7239  8613  8612 1
 7240  8614  8613 1
 7241  8615  8613 1
 7242  8616  8613 1
 7243  8617  8616 1
 7244  8619  8618 1
 7245  8620  8619 1
 7246  8621  8619 1
 7247  8622  8619 1
 7248  8623  8622 1
 7249  8625  8624 1
 7250  8626  8625 1
 7251  8627  8625 1
 7252  8628  8625 1
 7253  8629  8628 1
 7254  8631  8630 1
 7255  8632  8631 1
 7256  8633  8631 1
 7257  8634  8631 1
 7258  8635  8634 1
 7259  8637  8636 1
 7260  8638  8637 1
 7261  8639  8637 1
 7262  8640  8637 1
 7263  8641  8640 1
 7264  8643  8642 1
 7265  8644  8643 1
 7266  8645  8643 1
 7267  8646  8643 1
 7268  8647  8646 1
 7269  8649  8648 1
 7270  8650  8649 1
 7271  8651  8649 1
 7272  8652  8649 1
 7273  8653  8652 1
 7274  8655  8654 1
 7275  8656  8655 1
 7276  8657  8655 1
 7277  8658  8655 1
 7278  8659  8658 1
 7279  8661  8660 1
 7280  8662  8661 1
 7281  8663  8661 1
 7282  8664  8661 1
 7283  8665  8664 1
 7284  8667  8666 1
 7285  8668  8667 1
 7286  8669  8667 1
 7287  8670  8667 1
 7288  8671  8670 1
 7289  8673  8672 1
 7290  8674  8673 1
 7291  8675  8673 1
 7292  8676  8673 1
 7293  8677  8676 1
 7294  8679  8678 1
 7295  8680  8679 1
 7296  8681  8679 1
 7297  8682  8679 1
 7298  8683  8682 1
 7299  8685  8684 1
 7300  8686  8685 1
 7301  8687  8685 1
 7302  8688  8685 1
 7303  8689  8688 1
 7304  8691  8690 1
 7305  8692  8691 1
 7306  8693  8691 1
 7307  8694  8691 1
 7308  8695  8694 1
 7309  8697  8696 1
 7310  8698  8697 1
 7311  8699  8697 1
 7312  8700  8697 1
 7313  8701  8700 1
 7314  8703  8702 1
 7315  8704  8703 1
 7316  8705  8703 1
 7317  8706  8703 1
 7318  8707  8706 1
 7319  8709  8708 1
 7320  8710  8709 1
 7321  8711  8709 1
 7322  8712  8709 1
 7323  8713  8712 1
 7324  8715  8714 1
 7325  8716  8715 1
 7326  8717  8715 1
 7327  8718  8715 1
 7328  8719  8718 1
 7329  8721  8720 1
 7330  8722  8721 1
 7331  8723  8721 1
 7332  8724  8721 1
 7333  8725  8724 1
 7334  8727  8726 1
 7335  8728  8727 1
 7336  8729  8727 1
 7337  8730  8727 1
 7338  8731  8730 1
 7339  8733  8732 1
 7340  8734  8733 1
 7341  8735  8733 1
 7342  8736  8733 1
 7343  8737  8736 1
 7344  8739  8738 1
 7345  8740  8739 1
 7346  8741  8739 1
 7347  8742  8739 1
 7348  8743  8742 1
 7349  8745  8744 1
 7350  8746  8745 1
 7351  8747  8745 1
 7352  8748  8745 1
 7353  8749  8748 1
 7354  8751  8750 1
 7355  8752  8751 1
 7356  8753  8751 1
 7357  8754  8751 1
 7358  8755  8754 1
 7359  8757  8756 1
 7360  8758  8757 1
 7361  8759  8757 1
 7362  8760  8757 1
 7363  8761  8760 1
 7364  8763  8762 1
 7365  8764  8763 1
 7366  8765  8763 1
 7367  8766  8763 1
 7368  8767  8766 1
 7369  8769  8768 1
 7370  8770  8769 1
 7371  8771  8769 1
 7372  8772  8769 1
 7373  8773  8772 1
 7374  8775  8774 1
 7375  8776  8775 1
 7376  8777  8775 1
 7377  8778  8775 1
 7378  8779  8778 1
 7379  8781  8780 1
 7380  8782  8781 1
 7381  8783  8781 1
 7382  8784  8781 1
 7383  8785  8784 1
 7384  8787  8786 1
 7385  8788  8787 1
 7386  8789  8787 1
 7387  8790  8787 1
 7388  8791  8790 1
 7389  8793  8792 1
 7390  8794  8793 1
 7391  8795  8793 1
 7392  8796  8793 1
 7393  8797  8796 1
 7394  8799  8798 1
 7395  8800  8799 1
 7396  8801  8799 1
 7397  8802  8799 1
 7398  8803  8802 1
 7399  8805  8804 1
 7400  8806  8805 1
 7401  8807  8805 1
 7402  8808  8805 1
 7403  8809  8808 1
 7404  8811  8810 1
 7405  8812  8811 1
 7406  8813  8811 1
 7407  8814  8811 1
 7408  8815  8814 1
 7409  8817  8816 1
 7410  8818  8817 1
 7411  8819  8817 1
 7412  8820  8817 1
 7413  8821  8820 1
 7414  8823  8822 1
 7415  8824  8823 1
 7416  8825  8823 1
 7417  8826  8823 1
 7418  8827  8826 1
 7419  8829  8828 1
 7420  8830  8829 1
 7421  8831  8829 1
 7422  8832  8829 1
 7423  8833  8832 1
 7424  8835  8834 1
 7425  8836  8835 1
 7426  8837  8835 1
 7427  8838  8835 1
 7428  8839  8838 1
 7429  8841  8840 1
 7430  8842  8841 1
 7431  8843  8841 1
 7432  8844  8841 1
 7433  8845  8844 1
 7434  8847  8846 1
 7435  8848  8847 1
 7436  8849  8847 1
 7437  8850  8847 1
 7438  8851  8850 1
 7439  8853  8852 1
 7440  8854  8853 1
 7441  8855  8853 1
 7442  8856  8853 1
 7443  8857  8856 1
 7444  8859  8858 1
 7445  8860  8859 1
 7446  8861  8859 1
 7447  8862  8859 1
 7448  8863  8862 1
 7449  8865  8864 1
 7450  8866  8865 1
 7451  8867  8865 1
 7452  8868  8865 1
 7453  8869  8868 1
 7454  8871  8870 1
 7455  8872  8871 1
 7456  8873  8871 1
 7457  8874  8871 1
 7458  8875  8874 1
 7459  8877  8876 1
 7460  8878  8877 1
 7461  8879  8877 1
 7462  8880  8877 1
 7463  8881  8880 1
 7464  8883  8882 1
 7465  8884  8883 1
 7466  8885  8883 1
 7467  8886  8883 1
 7468  8887  8886 1
 7469  8889  8888 1
 7470  8890  8889 1
 7471  8891  8889 1
 7472  8892  8889 1
 7473  8893  8892 1
 7474  8895  8894 1
 7475  8896  8895 1
 7476  8897  8895 1
 7477  8898  8895 1
 7478  8899  8898 1
 7479  8901  8900 1
 7480  8902  8901 1
 7481  8903  8901 1
 7482  8904  8901 1
 7483  8905  8904 1
 7484  8907  8906 1
 7485  8908  8907 1
 7486  8909  8907 1
 7487  8910  8907 1
 7488  8911  8910 1
 7489  8913  8912 1
 7490  8914  8913 1
 7491  8915  8913 1
 7492  8916  8913 1
 7493  8917  8916 1
 7494  8919  8918 1
 7495  8920  8919 1
 7496  8921  8919 1
 7497  8922  8919 1
 7498  8923  8922 1
 7499  8925  8924 1
 7500  8926  8925 1
 7501  8927  8925 1
 7502  8928  8925 1
 7503  8929  8928 1
 7504  8931  8930 1
 7505  8932  8931 1
 7506  8933  8931 1
 7507  8934  8931 1
 7508  8935  8934 1
 7509  8937  8936 1
 7510  8938  8937 1
 7511  8939  8937 1
 7512  8940  8937 1
 7513  8941  8940 1
 7514  8943  8942 1
 7515  8944  8943 1
 7516  8945  8943 1
 7517  8946  8943 1
 7518  8947  8946 1
 7519  8949  8948 1
 7520  8950  8949 1
 7521  8951  8949 1
 7522  8952  8949 1
 7523  8953  8952 1
 7524  8955  8954 1
 7525  8956  8955 1
 7526  8957  8955 1
 7527  8958  8955 1
 7528  8959  8958 1
 7529  8961  8960 1
 7530  8962  8961 1
 7531  8963  8961 1
 7532  8964  8961 1
 7533  8965  8964 1
 7534  8967  8966 1
 7535  8968  8967 1
 7536  8969  8967 1
 7537  8970  8967 1
 7538  8971  8970 1
 7539  8973  8972 1
 7540  8974  8973 1
 7541  8975  8973 1
 7542  8976  8973 1
 7543  8977  8976 1
 7544  8979  8978 1
 7545  8980  8979 1
 7546  8981  8979 1
 7547  8982  8979 1
 7548  8983  8982 1
 7549  8985  8984 1
 7550  8986  8985 1
 7551  8987  8985 1
 7552  8988  8985 1
 7553  8989  8988 1
 7554  8991  8990 1
 7555  8992  8991 1
 7556  8993  8991 1
 7557  8994  8991 1
 7558  8995  8994 1
 7559  8997  8996 1
 7560  8998  8997 1
 7561  8999  8997 1
 7562  9000  8997 1
 7563  9001  9000 1
 7564  9003  9002 1
 7565  9004  9003 1
 7566  9005  9003 1
 7567  9006  9003 1
 7568  9007  9006 1
 7569  9009  9008 1
 7570  9010  9009 1
 7571  9011  9009 1
 7572  9012  9009 1
 7573  9013  9012 1
 7574  9015  9014 1
 7575  9016  9015 1
 7576  9017  9015 1
 7577  9018  9015 1
 7578  9019  9018 1
 7579  9021  9020 1
 7580  9022  9021 1
 7581  9023  9021 1
 7582  9024  9021 1
 7583  9025  9024 1
 7584  9027  9026 1
 7585  9028  9027 1
 7586  9029  9027 1
 7587  9030  9027 1
 7588  9031  9030 1
 7589  9033  9032 1
 7590  9034  9033 1
 7591  9035  9033 1
 7592  9036  9033 1
 7593  9037  9036 1
 7594  9039  9038 1
 7595  9040  9039 1
 7596  9041  9039 1
 7597  9042  9039 1
 7598  9043  9042 1
 7599  9045  9044 1
 7600  9046  9045 1
 7601  9047  9045 1
 7602  9048  9045 1
 7603  9049  9048 1
 7604  9051  9050 1
 7605  9052  9051 1
 7606  9053  9051 1
 7607  9054  9051 1
 7608  9055  9054 1
 7609  9057  9056 1
 7610  9058  9057 1
 7611  9059  9057 1
 7612  9060  9057 1
 7613  9061  9060 1
 7614  9063  9062 1
 7615  9064  9063 1
 7616  9065  9063 1
 7617  9066  9063 1
 7618  9067  9066 1
 7619  9069  9068 1
 7620  9070  9069 1
 7621  9071  9069 1
 7622  9072  9069 1
 7623  9073  9072 1
 7624  9075  9074 1
 7625  9076  9075 1
 7626  9077  9075 1
 7627  9078  9075 1
 7628  9079  9078 1
 7629  9081  9080 1
 7630  9082  9081 1
 7631  9083  9081 1
 7632  9084  9081 1
 7633  9085  9084 1
 7634  9087  9086 1
 7635  9088  9087 1
 7636  9089  9087 1
 7637  9090  9087 1
 7638  9091  9090 1
 7639  9093  9092 1
 7640  9094  9093 1
 7641  9095  9093 1
 7642  9096  9093 1
 7643  9097  9096 1
 7644  9099  9098 1
 7645  9100  9099 1
 7646  9101  9099 1
 7647  9102  9099 1
 7648  9103  9102 1
 7649  9105  9104 1
 7650  9106  9105 1
 7651  9107  9105 1
 7652  9108  9105 1
 7653  9109  9108 1
 7654  9111  9110 1
 7655  9112  9111 1
 7656  9113  9111 1
 7657  9114  9111 1
 7658  9115  9114 1
 7659  9117  9116 1
 7660  9118  9117 1
 7661  9119  9117 1
 7662  9120  9117 1
 7663  9121  9120 1
 7664  9123  9122 1
 7665  9124  9123 1
 7666  9125  9123 1
 7667  9126  9123 1
 7668  9127  9126 1
 7669  9129  9128 1
 7670  9130  9129 1
 7671  9131  9129 1
 7672  9132  9129 1
 7673  9133  9132 1
 7674  9135  9134 1
 7675  9136  9135 1
 7676  9137  9135 1
 7677  9138  9135 1
 7678  9139  9138 1
 7679  9141  9140 1
 7680  9142  9141 1
 7681  9143  9141 1
 7682  9144  9141 1
 7683  9145  9144 1
 7684  9147  9146 1
 7685  9148  9147 1
 7686  9149  9147 1
 7687  9150  9147 1
 7688  9151  9150 1
 7689  9153  9152 1
 7690  9154  9153 1
 7691  9155  9153 1
 7692  9156  9153 1
 7693  9157  9156 1
 7694  9159  9158 1
 7695  9160  9159 1
 7696  9161  9159 1
 7697  9162  9159 1
 7698  9163  9162 1
 7699  9165  9164 1
 7700  9166  9165 1
 7701  9167  9165 1
 7702  9168  9165 1
 7703  9169  9168 1
 7704  9171  9170 1
 7705  9172  9171 1
 7706  9173  9171 1
 7707  9174  9171 1
 7708  9175  9174 1
 7709  9177  9176 1
 7710  9178  9177 1
 7711  9179  9177 1
 7712  9180  9177 1
 7713  9181  9180 1
 7714  9183  9182 1
 7715  9184  9183 1
 7716  9185  9183 1
 7717  9186  9183 1
 7718  9187  9186 1
 7719  9189  9188 1
 7720  9190  9189 1
 7721  9191  9189 1
 7722  9192  9189 1
 7723  9193  9192 1
 7724  9195  9194 1
 7725  9196  9195 1
 7726  9197  9195 1
 7727  9198  9195 1
 7728  9199  9198 1
 7729  9201  9200 1
 7730  9202  9201 1
 7731  9203  9201 1
 7732  9204  9201 1
 7733  9205  9204 1
 7734  9207  9206 1
 7735  9208  9207 1
 7736  9209  9207 1
 7737  9210  9207 1
 7738  9211  9210 1
 7739  9213  9212 1
 7740  9214  9213 1
 7741  9215  9213 1
 7742  9216  9213 1
 7743  9217  9216 1
 7744  9219  9218 1
 7745  9220  9219 1
 7746  9221  9219 1
 7747  9222  9219 1
 7748  9223  9222 1
 7749  9225  9224 1
 7750  9226  9225 1
 7751  9227  9225 1
 7752  9228  9225 1
 7753  9229  9228 1
 7754  9231  9230 1
 7755  9232  9231 1
 7756  9233  9231 1
 7757  9234  9231 1
 7758  9235  9234 1
 7759  9237  9236 1
 7760  9238  9237 1
 7761  9239  9237 1
 7762  9240  9237 1
 7763  9241  9240 1
 7764  9243  9242 1
 7765  9244  9243 1
 7766  9245  9243 1
 7767  9246  9243 1
 7768  9247  9246 1
 7769  9249  9248 1
 7770  9250  9249 1
 7771  9251  9249 1
 7772  9252  9249 1
 7773  9253  9252 1
 7774  9255  9254 1
 7775  9256  9255 1
 7776  9257  9255 1
 7777  9258  9255 1
 7778  9259  9258 1
 7779  9261  9260 1
 7780  9262  9261 1
 7781  9263  9261 1
 7782  9264  9261 1
 7783  9265  9264 1
 7784  9267  9266 1
 7785  9268  9267 1
 7786  9269  9267 1
 7787  9270  9267 1
 7788  9271  9270 1
 7789  9273  9272 1
 7790  9274  9273 1
 7791  9275  9273 1
 7792  9276  9273 1
 7793  9277  9276 1
 7794  9279  9278 1
 7795  9280  9279 1
 7796  9281  9279 1
 7797  9282  9279 1
 7798  9283  9282 1
 7799  9285  9284 1
 7800  9286  9285 1
 7801  9287  9285 1
 7802  9288  9285 1
 7803  9289  9288 1
 7804  9291  9290 1
 7805  9292  9291 1
 7806  9293  9291 1
 7807  9294  9291 1
 7808  9295  9294 1
 7809  9297  9296 1
 7810  9298  9297 1
 7811  9299  9297 1
 7812  9300  9297 1
 7813  9301  9300 1
 7814  9303  9302 1
 7815  9304  9303 1
 7816  9305  9303 1
 7817  9306  9303 1
 7818  9307  9306 1
 7819  9309  9308 1
 7820  9310  9309 1
 7821  9311  9309 1
 7822  9312  9309 1
 7823  9313  9312 1
 7824  9315  9314 1
 7825  9316  9315 1
 7826  9317  9315 1
 7827  9318  9315 1
 7828  9319  9318 1
 7829  9321  9320 1
 7830  9322  9321 1
 7831  9323  9321 1
 7832  9324  9321 1
 7833  9325  9324 1
 7834  9327  9326 1
 7835  9328  9327 1
 7836  9329  9327 1
 7837  9330  9327 1
 7838  9331  9330 1
 7839  9333  9332 1
 7840  9334  9333 1
 7841  9335  9333 1
 7842  9336  9333 1
 7843  9337  9336 1
 7844  9339  9338 1
 7845  9340  9339 1
 7846  9341  9339 1
 7847  9342  9339 1
 7848  9343  9342 1
 7849  9345  9344 1
 7850  9346  9345 1
 7851  9347  9345 1
 7852  9348  9345 1
 7853  9349  9348 1
 7854  9351  9350 1
 7855  9352  9351 1
 7856  9353  9351 1
 7857  9354  9351 1
 7858  9355  9354 1
 7859  9357  9356 1
 7860  9358  9357 1
 7861  9359  9357 1
 7862  9360  9357 1
 7863  9361  9360 1
 7864  9363  9362 1
 7865  9364  9363 1
 7866  9365  9363 1
 7867  9366  9363 1
 7868  9367  9366 1
 7869  9369  9368 1
 7870  9370  9369 1
 7871  9371  9369 1
 7872  9372  9369 1
 7873  9373  9372 1
 7874  9375  9374 1
 7875  9376  9375 1
 7876  9377  9375 1
 7877  9378  9375 1
 7878  9379  9378 1
 7879  9381  9380 1
 7880  9382  9381 1
 7881  9383  9381 1
 7882  9384  9381 1
 7883  9385  9384 1
 7884  9387  9386 1
 7885  9388  9387 1
 7886  9389  9387 1
 7887  9390  9387 1
 7888  9391  9390 1
 7889  9393  9392 1
 7890  9394  9393 1
 7891  9395  9393 1
 7892  9396  9393 1
 7893  9397  9396 1
 7894  9399  9398 1
 7895  9400  9399 1
 7896  9401  9399 1
 7897  9402  9399 1
 7898  9403  9402 1
 7899  9405  9404 1
 7900  9406  9405 1
 7901  9407  9405 1
 7902  9408  9405 1
 7903  9409  9408 1
 7904  9411  9410 1
 7905  9412  9411 1
 7906  9413  9411 1
 7907  9414  9411 1
 7908  9415  9414 1
 7909  9417  9416 1
 7910  9418  9417 1
 7911  9419  9417 1
 7912  9420  9417 1
 7913  9421  9420 1
 7914  9423  9422 1
 7915  9424  9423 1
 7916  9425  9423 1
 7917  9426  9423 1
 7918  9427  9426 1
 7919  9429  9428 1
 7920  9430  9429 1
 7921  9431  9429 1
 7922  9432  9429 1
 7923  9433  9432 1
 7924  9435  9434 1
 7925  9436  9435 1
 7926  9437  9435 1
 7927  9438  9435 1
 7928  9439  9438 1
 7929  9441  9440 1
 7930  9442  9441 1
 7931  9443  9441 1
 7932  9444  9441 1
 7933  9445  9444 1
 7934  9447  9446 1
 7935  9448  9447 1
 7936  9449  9447 1
 7937  9450  9447 1
 7938  9451  9450 1
 7939  9453  9452 1
 7940  9454  9453 1
 7941  9455  9453 1
 7942  9456  9453 1
 7943  9457  9456 1
 7944  9459  9458 1
 7945  9460  9459 1
 7946  9461  9459 1
 7947  9462  9459 1
 7948  9463  9462 1
 7949  9465  9464 1
 7950  9466  9465 1
 7951  9467  9465 1
 7952  9468  9465 1
 7953  9469  9468 1
 7954  9471  9470 1
 7955  9472  9471 1
 7956  9473  9471 1
 7957  9474  9471 1
 7958  9475  9474 1
 7959  9477  9476 1
 7960  9478  9477 1
 7961  9479  9477 1
 7962  9480  9477 1
 7963  9481  9480 1
 7964  9483  9482 1
 7965  9484  9483 1
 7966  9485  9483 1
 7967  9486  9483 1
 7968  9487  9486 1
 7969  9489  9488 1
 7970  9490  9489 1
 7971  9491  9489 1
 7972  9492  9489 1
 7973  9493  9492 1
 7974  9495  9494 1
 7975  9496  9495 1
 7976  9497  9495 1
 7977  9498  9495 1
 7978  9499  9498 1
 7979  9501  9500 1
 7980  9502  9501 1
 7981  9503  9501 1
 7982  9504  9501 1
 7983  9505  9504 1
 7984  9507  9506 1
 7985  9508  9507 1
 7986  9509  9507 1
 7987  9510  9507 1
 7988  9511  9510 1
 7989  9513  9512 1
 7990  9514  9513 1
 7991  9515  9513 1
 7992  9516  9513 1
 7993  9517  9516 1
 7994  9519  9518 1
 7995  9520  9519 1
 7996  9521  9519 1
 7997  9522  9519 1
 7998  9523  9522 1
 7999  9525  9524 1
 8000  9526  9525 1
 8001  9527  9525 1
 8002  9528  9525 1
 8003  9529  9528 1
 8004  9531  9530 1
 8005  9532  9531 1
 8006  9533  9531 1
 8007  9534  9531 1
 8008  9535  9534 1
 8009  9537  9536 1
 8010  9538  9537 1
 8011  9539  9537 1
 8012  9540  9537 1
 8013  9541  9540 1
 8014  9543  9542 1
 8015  9544  9543 1
 8016  9545  9543 1
 8017  9546  9543 1
 8018  9547  9546 1
 8019  9549  9548 1
 8020  9550  9549 1
 8021  9551  9549 1
 8022  9552  9549 1
 8023  9553  9552 1
 8024  9555  9554 1
 8025  9556  9555 1
 8026  9557  9555 1
 8027  9558  9555 1
 8028  9559  9558 1
 8029  9561  9560 1
 8030  9562  9561 1
 8031  9563  9561 1
 8032  9564  9561 1
 8033  9565  9564 1
 8034  9567  9566 1
 8035  9568  9567 1
 8036  9569  9567 1
 8037  9570  9567 1
 8038  9571  9570 1
 8039  9573  9572 1
 8040  9574  9573 1
 8041  9575  9573 1
 8042  9576  9573 1
 8043  9577  9576 1
 8044  9579  9578 1
 8045  9580  9579 1
 8046  9581  9579 1
 8047  9582  9579 1
 8048  9583  9582 1
 8049  9585  9584 1
 8050  9586  9585 1
 8051  9587  9585 1
 8052  9588  9585 1
 8053  9589  9588 1
 8054  9591  9590 1
 8055  9592  9591 1
 8056  9593  9591 1
 8057  9594  9591 1
 8058  9595  9594 1
 8059  9597  9596 1
 8060  9598  9597 1
 8061  9599  9597 1
 8062  9600  9597 1
 8063  9601  9600 1
 8064  9603  9602 1
 8065  9604  9603 1
 8066  9605  9603 1
 8067  9606  9603 1
 8068  9607  9606 1
 8069  9609  9608 1
 8070  9610  9609 1
 8071  9611  9609 1
 8072  9612  9609 1
 8073  9613  9612 1
 8074  9615  9614 1
 8075  9616  9615 1
 8076  9617  9615 1
 8077  9618  9615 1
 8078  9619  9618 1
 8079  9621  9620 1
 8080  9622  9621 1
 8081  9623  9621 1
 8082  9624  9621 1
 8083  9625  9624 1
 8084  9627  9626 1
 8085  9628  9627 1
 8086  9629  9627 1
 8087  9630  9627 1
 8088  9631  9630 1
 8089  9633  9632 1
 8090  9634  9633 1
 8091  9635  9633 1
 8092  9636  9633 1
 8093  9637  9636 1
 8094  9639  9638 1
 8095  9640  9639 1
 8096  9641  9639 1
 8097  9642  9639 1
 8098  9643  9642 1
 8099  9645  9644 1
 8100  9646  9645 1
 8101  9647  9645 1
 8102  9648  9645 1
 8103  9649  9648 1
 8104  9651  9650 1
 8105  9652  9651 1
 8106  9653  9651 1
 8107  9654  9651 1
 8108  9655  9654 1
 8109  9657  9656 1
 8110  9658  9657 1
 8111  9659  9657 1
 8112  9660  9657 1
 8113  9661  9660 1
 8114  9663  9662 1
 8115  9664  9663 1
 8116  9665  9663 1
 8117  9666  9663 1
 8118  9667  9666 1
 8119  9669  9668 1
 8120  9670  9669 1
 8121  9671  9669 1
 8122  9672  9669 1
 8123  9673  9672 1
 8124  9675  9674 1
 8125  9676  9675 1
 8126  9677  9675 1
 8127  9678  9675 1
 8128  9679  9678 1
 8129  9681  9680 1
 8130  9682  9681 1
 8131  9683  9681 1
 8132  9684  9681 1
 8133  9685  9684 1
 8134  9687  9686 1
 8135  9688  9687 1
 8136  9689  9687 1
 8137  9690  9687 1
 8138  9691  9690 1
 8139  9693  9692 1
 8140  9694  9693 1
 8141  9695  9693 1
 8142  9696  9693 1
 8143  9697  9696 1
 8144  9699  9698 1
 8145  9700  9699 1
 8146  9701  9699 1
 8147  9702  9699 1
 8148  9703  9702 1
 8149  9705  9704 1
 8150  9706  9705 1
 8151  9707  9705 1
 8152  9708  9705 1
 8153  9709  9708 1
 8154  9711  9710 1
 8155  9712  9711 1
 8156  9713  9711 1
 8157  9714  9711 1
 8158  9715  9714 1
 8159  9717  9716 1
 8160  9718  9717 1
 8161  9719  9717 1
 8162  9720  9717 1
 8163  9721  9720 1
 8164  9723  9722 1
 8165  9724  9723 1
 8166  9725  9723 1
 8167  9726  9723 1
 8168  9727  9726 1
 8169  9729  9728 1
 8170  9730  9729 1
 8171  9731  9729 1
 8172  9732  9729 1
 8173  9733  9732 1
 8174  9735  9734 1
 8175  9736  9735 1
 8176  9737  9735 1
 8177  9738  9735 1
 8178  9739  9738 1
 8179  9741  9740 1
 8180  9742  9741 1
 8181  9743  9741 1
 8182  9744  9741 1
 8183  9745  9744 1
 8184  9747  9746 1
 8185  9748  9747 1
 8186  9749  9747 1
 8187  9750  9747 1
 8188  9751  9750 1
 8189  9753  9752 1
 8190  9754  9753 1
 8191  9755  9753 1
 8192  9756  9753 1
 8193  9757  9756 1
 8194  9759  9758 1
 8195  9760  9759 1
 8196  9761  9759 1
 8197  9762  9759 1
 8198  9763  9762 1
 8199  9765  9764 1
 8200  9766  9765 1
 8201  9767  9765 1
 8202  9768  9765 1
 8203  9769  9768 1
 8204  9771  9770 1
 8205  9772  9771 1
 8206  9773  9771 1
 8207  9774  9771 1
 8208  9775  9774 1
 8209  9777  9776 1
 8210  9778  9777 1
 8211  9779  9777 1
 8212  9780  9777 1
 8213  9781  9780 1
 8214  9783  9782 1
 8215  9784  9783 1
 8216  9785  9783 1
 8217  9786  9783 1
 8218  9787  9786 1
 8219  9789  9788 1
 8220  9790  9789 1
 8221  9791  9789 1
 8222  9792  9789 1
 8223  9793  9792 1
 8224  9795  9794 1
 8225  9796  9795 1
 8226  9797  9795 1
 8227  9798  9795 1
 8228  9799  9798 1
 8229  9801  9800 1
 8230  9802  9801 1
 8231  9803  9801 1
 8232  9804  9801 1
 8233  9805  9804 1
 8234  9807  9806 1
 8235  9808  9807 1
 8236  9809  9807 1
 8237  9810  9807 1
 8238  9811  9810 1
 8239  9813  9812 1
 8240  9814  9813 1
 8241  9815  9813 1
 8242  9816  9813 1
 8243  9817  9816 1
 8244  9819  9818 1
 8245  9820  9819 1
 8246  9821  9819 1
 8247  9822  9819 1
 8248  9823  9822 1
 8249  9825  9824 1
 8250  9826  9825 1
 8251  9827  9825 1
 8252  9828  9825 1
 8253  9829  9828 1
 8254  9831  9830 1
 8255  9832  9831 1
 8256  9833  9831 1
 8257  9834  9831 1
 8258  9835  9834 1
 8259  9837  9836 1
 8260  9838  9837 1
 8261  9839  9837 1
 8262  9840  9837 1
 8263  9841  9840 1
 8264  9843  9842 1
 8265  9844  9843 1
 8266  9845  9843 1
 8267  9846  9843 1
 8268  9847  9846 1
 8269  9849  9848 1
 8270  9850  9849 1
 8271  9851  9849 1
 8272  9852  9849 1
 8273  9853  9852 1
 8274  9855  9854 1
 8275  9856  9855 1
 8276  9857  9855 1
 8277  9858  9855 1
 8278  9859  9858 1
 8279  9861  9860 1
 8280  9862  9861 1
 8281  9863  9861 1
 8282  9864  9861 1
 8283  9865  9864 1
 8284  9867  9866 1
 8285  9868  9867 1
 8286  9869  9867 1
 8287  9870  9867 1
 8288  9871  9870 1
 8289  9873  9872 1
 8290  9874  9873 1
 8291  9875  9873 1
 8292  9876  9873 1
 8293  9877  9876 1
 8294  9879  9878 1
 8295  9880  9879 1
 8296  9881  9879 1
 8297  9882  9879 1
 8298  9883  9882 1
 8299  9885  9884 1
 8300  9886  9885 1
 8301  9887  9885 1
 8302  9888  9885 1
 8303  9889  9888 1
 8304  9891  9890 1
 8305  9892  9891 1
 8306  9893  9891 1
 8307  9894  9891 1
 8308  9895  9894 1
 8309  9897  9896 1
 8310  9898  9897 1
 8311  9899  9897 1
 8312  9900  9897 1
 8313  9901  9900 1
 8314  9903  9902 1
 8315  9904  9903 1
 8316  9905  9903 1
 8317  9906  9903 1
 8318  9907  9906 1
 8319  9909  9908 1
 8320  9910  9909 1
 8321  9911  9909 1
 8322  9912  9909 1
 8323  9913  9912 1
 8324  9915  9914 1
 8325  9916  9915 1
 8326  9917  9915 1
 8327  9918  9915 1
 8328  9919  9918 1
 8329  9921  9920 1
 8330  9922  9921 1
 8331  9923  9921 1
 8332  9924  9921 1
 8333  9925  9924 1
 8334  9927  9926 1
 8335  9928  9927 1
 8336  9929  9927 1
 8337  9930  9927 1
 8338  9931  9930 1
 8339  9933  9932 1
 8340  9934  9933 1
 8341  9935  9933 1
 8342  9936  9933 1
 8343  9937  9936 1
 8344  9939  9938 1
 8345  9940  9939 1
 8346  9941  9939 1
 8347  9942  9939 1
 8348  9943  9942 1
 8349  9945  9944 1
 8350  9946  9945 1
 8351  9947  9945 1
 8352  9948  9945 1
 8353  9949  9948 1
 8354  9951  9950 1
 8355  9952  9951 1
 8356  9953  9951 1
 8357  9954  9951 1
 8358  9955  9954 1
 8359  9957  9956 1
 8360  9958  9957 1
 8361  9959  9957 1
 8362  9960  9957 1
 8363  9961  9960 1
 8364  9963  9962 1
 8365  9964  9963 1
 8366  9965  9963 1
 8367  9966  9963 1
 8368  9967  9966 1
 8369  9969  9968 1
 8370  9970  9969 1
 8371  9971  9969 1
 8372  9972  9969 1
 8373  9973  9972 1
 8374  9975  9974 1
 8375  9976  9975 1
 8376  9977  9975 1
 8377  9978  9975 1
 8378  9979  9978 1
 8379  9981  9980 1
 8380  9982  9981 1
 8381  9983  9981 1
 8382  9984  9981 1
 8383  9985  9984 1
 8384  9987  9986 1
 8385  9988  9987 1
 8386  9989  9987 1
 8387  9990  9987 1
 8388  9991  9990 1
 8389  9993  9992 1
 8390  9994  9993 1
 8391  9995  9993 1
 8392  9996  9993 1
 8393  9997  9996 1
 8394  9999  9998 1
 8395 10000  9999 1
 8396 10001  9999 1
 8397 10002  9999 1
 8398 10003 10002 1
 8399 10005 10004 1
 8400 10006 10005 1
 8401 10007 10005 1
 8402 10008 10005 1
 8403 10009 10008 1
 8404 10011 10010 1
 8405 10012 10011 1
 8406 10013 10011 1
 8407 10014 10011 1
 8408 10015 10014 1
 8409 10017 10016 1
 8410 10018 10017 1
 8411 10019 10017 1
 8412 10020 10017 1
 8413 10021 10020 1
 8414 10023 10022 1
 8415 10024 10023 1
 8416 10025 10023 1
 8417 10026 10023 1
 8418 10027 10026 1
 8419 10029 10028 1
 8420 10030 10029 1
 8421 10031 10029 1
 8422 10032 10029 1
 8423 10033 10032 1
 8424 10035 10034 1
 8425 10036 10035 1
 8426 10037 10035 1
 8427 10038 10035 1
 8428 10039 10038 1
 8429 10041 10040 1
 8430 10042 10041 1
 8431 10043 10041 1
 8432 10044 10041 1
 8433 10045 10044 1
 8434 10047 10046 1
 8435 10048 10047 1
 8436 10049 10047 1
 8437 10050 10047 1
 8438 10051 10050 1
 8439 10053 10052 1
 8440 10054 10053 1
 8441 10055 10053 1
 8442 10056 10053 1
 8443 10057 10056 1
 8444 10059 10058 1
 8445 10060 10059 1
 8446 10061 10059 1
 8447 10062 10059 1
 8448 10063 10062 1
 8449 10065 10064 1
 8450 10066 10065 1
 8451 10067 10065 1
 8452 10068 10065 1
 8453 10069 10068 1
 8454 10071 10070 1
 8455 10072 10071 1
 8456 10073 10071 1
 8457 10074 10071 1
 8458 10075 10074 1
 8459 10077 10076 1
 8460 10078 10077 1
 8461 10079 10077 1
 8462 10080 10077 1
 8463 10081 10080 1
 8464 10083 10082 1
 8465 10084 10083 1
 8466 10085 10083 1
 8467 10086 10083 1
 8468 10087 10086 1
 8469 10089 10088 1
 8470 10090 10089 1
 8471 10091 10089 1
 8472 10092 10089 1
 8473 10093 10092 1
 8474 10095 10094 1
 8475 10096 10095 1
 8476 10097 10095 1
 8477 10098 10095 1
 8478 10099 10098 1
 8479 10101 10100 1
 8480 10102 10101 1
 8481 10103 10101 1
 8482 10104 10101 1
 8483 10105 10104 1
 8484 10107 10106 1
 8485 10108 10107 1
 8486 10109 10107 1
 8487 10110 10107 1
 8488 10111 10110 1
 8489 10113 10112 1
 8490 10114 10113 1
 8491 10115 10113 1
 8492 10116 10113 1
 8493 10117 10116 1
 8494 10119 10118 1
 8495 10120 10119 1
 8496 10121 10119 1
 8497 10122 10119 1
 8498 10123 10122 1
 8499 10125 10124 1
 8500 10126 10125 1
 8501 10127 10125 1
 8502 10128 10125 1
 8503 10129 10128 1
 8504 10131 10130 1
 8505 10132 10131 1
 8506 10133 10131 1
 8507 10134 10131 1
 8508 10135 10134 1
 8509 10137 10136 1
 8510 10138 10137 1
 8511 10139 10137 1
 8512 10140 10137 1
 8513 10141 10140 1
 8514 10143 10142 1
 8515 10144 10143 1
 8516 10145 10143 1
 8517 10146 10143 1
 8518 10147 10146 1
 8519 10149 10148 1
 8520 10150 10149 1
 8521 10151 10149 1
 8522 10152 10149 1
 8523 10153 10152 1
 8524 10155 10154 1
 8525 10156 10155 1
 8526 10157 10155 1
 8527 10158 10155 1
 8528 10159 10158 1
 8529 10161 10160 1
 8530 10162 10161 1
 8531 10163 10161 1
 8532 10164 10161 1
 8533 10165 10164 1
 8534 10167 10166 1
 8535 10168 10167 1
 8536 10169 10167 1
 8537 10170 10167 1
 8538 10171 10170 1
 8539 10173 10172 1
 8540 10174 10173 1
 8541 10175 10173 1
 8542 10176 10173 1
 8543 10177 10176 1
 8544 10179 10178 1
 8545 10180 10179 1
 8546 10181 10179 1
 8547 10182 10179 1
 8548 10183 10182 1
 8549 10185 10184 1
 8550 10186 10185 1
 8551 10187 10185 1
 8552 10188 10185 1
 8553 10189 10188 1
 8554 10191 10190 1
 8555 10192 10191 1
 8556 10193 10191 1
 8557 10194 10191 1
 8558 10195 10194 1
 8559 10197 10196 1
 8560 10198 10197 1
 8561 10199 10197 1
 8562 10200 10197 1
 8563 10201 10200 1
 8564 10203 10202 1
 8565 10204 10203 1
 8566 10205 10203 1
 8567 10206 10203 1
 8568 10207 10206 1
 8569 10209 10208 1
 8570 10210 10209 1
 8571 10211 10209 1
 8572 10212 10209 1
 8573 10213 10212 1
 8574 10215 10214 1
 8575 10216 10215 1
 8576 10217 10215 1
 8577 10218 10215 1
 8578 10219 10218 1
 8579 10221 10220 1
 8580 10222 10221 1
 8581 10223 10221 1
 8582 10224 10221 1
 8583 10225 10224 1
 8584 10227 10226 1
 8585 10228 10227 1
 8586 10229 10227 1
 8587 10230 10227 1
 8588 10231 10230 1
 8589 10233 10232 1
 8590 10234 10233 1
 8591 10235 10233 1
 8592 10236 10233 1
 8593 10237 10236 1
 8594 10239 10238 1
 8595 10240 10239 1
 8596 10241 10239 1
 8597 10242 10239 1
 8598 10243 10242 1
 8599 10245 10244 1
 8600 10246 10245 1
 8601 10247 10245 1
 8602 10248 10245 1
 8603 10249 10248 1
 8604 10251 10250 1
 8605 10252 10251 1
 8606 10253 10251 1
 8607 10254 10251 1
 8608 10255 10254 1
 8609 10257 10256 1
 8610 10258 10257 1
 8611 10259 10257 1
 8612 10260 10257 1
 8613 10261 10260 1
 8614 10263 10262 1
 8615 10264 10263 1
 8616 10265 10263 1
 8617 10266 10263 1
 8618 10267 10266 1
 8619 10269 10268 1
 8620 10270 10269 1
 8621 10271 10269 1
 8622 10272 10269 1
 8623 10273 10272 1
 8624 10275 10274 1
 8625 10276 10275 1
 8626 10277 10275 1
 8627 10278 10275 1
 8628 10279 10278 1
 8629 10281 10280 1
 8630 10282 10281 1
 8631 10283 10281 1
 8632 10284 10281 1
 8633 10285 10284 1
 8634 10287 10286 1
 8635 10288 10287 1
 8636 10289 10287 1
 8637 10290 10287 1
 8638 10291 10290 1
 8639 10293 10292 1
 8640 10294 10293 1
 8641 10295 10293 1
 8642 10296 10293 1
 8643 10297 10296 1
 8644 10299 10298 1
 8645 10300 10299 1
 8646 10301 10299 1
 8647 10302 10299 1
 8648 10303 10302 1
 8649 10305 10304 1
 8650 10306 10305 1
 8651 10307 10305 1
 8652 10308 10305 1
 8653 10309 10308 1
 8654 10311 10310 1
 8655 10312 10311 1
 8656 10313 10311 1
 8657 10314 10311 1
 8658 10315 10314 1
 8659 10317 10316 1
 8660 10318 10317 1
 8661 10319 10317 1
 8662 10320 10317 1
 8663 10321 10320 1
 8664 10323 10322 1
 8665 10324 10323 1
 8666 10325 10323 1
 8667 10326 10323 1
 8668 10327 10326 1
 8669 10329 10328 1
 8670 10330 10329 1
 8671 10331 10329 1
 8672 10332 10329 1
 8673 10333 10332 1
 8674 10335 10334 1
 8675 10336 10335 1
 8676 10337 10335 1
 8677 10338 10335 1
 8678 10339 10338 1
 8679 10341 10340 1
 8680 10342 10341 1
 8681 10343 10341 1
 8682 10344 10341 1
 8683 10345 10344 1
 8684 10347 10346 1
 8685 10348 10347 1
 8686 10349 10347 1
 8687 10350 10347 1
 8688 10351 10350 1
 8689 10353 10352 1
 8690 10354 10353 1
 8691 10355 10353 1
 8692 10356 10353 1
 8693 10357 10356 1
 8694 10359 10358 1
 8695 10360 10359 1
 8696 10361 10359 1
 8697 10362 10359 1
 8698 10363 10362 1
 8699 10365 10364 1
 8700 10366 10365 1
 8701 10367 10365 1
 8702 10368 10365 1
 8703 10369 10368 1
 8704 10371 10370 1
 8705 10372 10371 1
 8706 10373 10371 1
 8707 10374 10371 1
 8708 10375 10374 1
 8709 10377 10376 1
 8710 10378 10377 1
 8711 10379 10377 1
 8712 10380 10377 1
 8713 10381 10380 1
 8714 10383 10382 1
 8715 10384 10383 1
 8716 10385 10383 1
 8717 10386 10383 1
 8718 10387 10386 1
 8719 10389 10388 1
 8720 10390 10389 1
 8721 10391 10389 1
 8722 10392 10389 1
 8723 10393 10392 1
 8724 10395 10394 1
 8725 10396 10395 1
 8726 10397 10395 1
 8727 10398 10395 1
 8728 10399 10398 1
 8729 10401 10400 1
 8730 10402 10401 1
 8731 10403 10401 1
 8732 10404 10401 1
 8733 10405 10404 1
 8734 10407 10406 1
 8735 10408 10407 1
 8736 10409 10407 1
 8737 10410 10407 1
 8738 10411 10410 1
 8739 10413 10412 1
 8740 10414 10413 1
 8741 10415 10413 1
 8742 10416 10413 1
 8743 10417 10416 1
 8744 10419 10418 1
 8745 10420 10419 1
 8746 10421 10419 1
 8747 10422 10419 1
 8748 10423 10422 1
 8749 10425 10424 1
 8750 10426 10425 1
 8751 10427 10425 1
 8752 10428 10425 1
 8753 10429 10428 1
 8754 10431 10430 1
 8755 10432 10431 1
 8756 10433 10431 1
 8757 10434 10431 1
 8758 10435 10434 1
 8759 10437 10436 1
 8760 10438 10437 1
 8761 10439 10437 1
 8762 10440 10437 1
 8763 10441 10440 1
 8764 10443 10442 1
 8765 10444 10443 1
 8766 10445 10443 1
 8767 10446 10443 1
 8768 10447 10446 1
 8769 10449 10448 1
 8770 10450 10449 1
 8771 10451 10449 1
 8772 10452 10449 1
 8773 10453 10452 1
 8774 10455 10454 1
 8775 10456 10455 1
 8776 10457 10455 1
 8777 10458 10455 1
 8778 10459 10458 1
 8779 10461 10460 1
 8780 10462 10461 1
 8781 10463 10461 1
 8782 10464 10461 1
 8783 10465 10464 1
 8784 10467 10466 1
 8785 10468 10467 1
 8786 10469 10467 1
 8787 10470 10467 1
 8788 10471 10470 1
 8789 10473 10472 1
 8790 10474 10473 1
 8791 10475 10473 1
 8792 10476 10473 1
 8793 10477 10476 1
 8794 10479 10478 1
 8795 10480 10479 1
 8796 10481 10479 1
 8797 10482 10479 1
 8798 10483 10482 1
 8799 10485 10484 1
 8800 10486 10485 1
 8801 10487 10485 1
 8802 10488 10485 1
 8803 10489 10488 1
 8804 10491 10490 1
 8805 10492 10491 1
 8806 10493 10491 1
 8807 10494 10491 1
 8808 10495 10494 1
 8809 10497 10496 1
 8810 10498 10497 1
 8811 10499 10497 1
 8812 10500 10497 1
 8813 10501 10500 1
 8814 10503 10502 1
 8815 10504 10503 1
 8816 10505 10503 1
 8817 10506 10503 1
 8818 10507 10506 1
 8819 10509 10508 1
 8820 10510 10509 1
 8821 10511 10509 1
 8822 10512 10509 1
 8823 10513 10512 1
 8824 10515 10514 1
 8825 10516 10515 1
 8826 10517 10515 1
 8827 10518 10515 1
 8828 10519 10518 1
 8829 10521 10520 1
 8830 10522 10521 1
 8831 10523 10521 1
 8832 10524 10521 1
 8833 10525 10524 1
 8834 10527 10526 1
 8835 10528 10527 1
 8836 10529 10527 1
 8837 10530 10527 1
 8838 10531 10530 1
 8839 10533 10532 1
 8840 10534 10533 1
 8841 10535 10533 1
 8842 10536 10533 1
 8843 10537 10536 1
 8844 10539 10538 1
 8845 10540 10539 1
 8846 10541 10539 1
 8847 10542 10539 1
 8848 10543 10542 1
 8849 10545 10544 1
 8850 10546 10545 1
 8851 10547 10545 1
 8852 10548 10545 1
 8853 10549 10548 1
 8854 10551 10550 1
 8855 10552 10551 1
 8856 10553 10551 1
 8857 10554 10551 1
 8858 10555 10554 1
 8859 10557 10556 1
 8860 10558 10557 1
 8861 10559 10557 1
 8862 10560 10557 1
 8863 10561 10560 1
 8864 10563 10562 1
 8865 10564 10563 1
 8866 10565 10563 1
 8867 10566 10563 1
 8868 10567 10566 1
 8869 10569 10568 1
 8870 10570 10569 1
 8871 10571 10569 1
 8872 10572 10569 1
 8873 10573 10572 1
 8874 10575 10574 1
 8875 10576 10575 1
 8876 10577 10575 1
 8877 10578 10575 1
 8878 10579 10578 1
 8879 10581 10580 1
 8880 10582 10581 1
 8881 10583 10581 1
 8882 10584 10581 1
 8883 10585 10584 1
 8884 10587 10586 1
 8885 10588 10587 1
 8886 10589 10587 1
 8887 10590 10587 1
 8888 10591 10590 1
 8889 10593 10592 1
 8890 10594 10593 1
 8891 10595 10593 1
 8892 10596 10593 1
 8893 10597 10596 1
 8894 10599 10598 1
 8895 10600 10599 1
 8896 10601 10599 1
 8897 10602 10599 1
 8898 10603 10602 1
 8899 10605 10604 1
 8900 10606 10605 1
 8901 10607 10605 1
 8902 10608 10605 1
 8903 10609 10608 1
 8904 10611 10610 1
 8905 10612 10611 1
 8906 10613 10611 1
 8907 10614 10611 1
 8908 10615 10614 1
 8909 10617 10616 1
 8910 10618 10617 1
 8911 10619 10617 1
 8912 10620 10617 1
 8913 10621 10620 1
 8914 10623 10622 1
 8915 10624 10623 1
 8916 10625 10623 1
 8917 10626 10623 1
 8918 10627 10626 1
 8919 10629 10628 1
 8920 10630 10629 1
 8921 10631 10629 1
 8922 10632 10629 1
 8923 10633 10632 1
 8924 10635 10634 1
 8925 10636 10635 1
 8926 10637 10635 1
 8927 10638 10635 1
 8928 10639 10638 1
 8929 10641 10640 1
 8930 10642 10641 1
 8931 10643 10641 1
 8932 10644 10641 1
 8933 10645 10644 1
 8934 10647 10646 1
 8935 10648 10647 1
 8936 10649 10647 1
 8937 10650 10647 1
 8938 10651 10650 1
 8939 10653 10652 1
 8940 10654 10653 1
 8941 10655 10653 1
 8942 10656 10653 1
 8943 10657 10656 1
 8944 10659 10658 1
 8945 10660 10659 1
 8946 10661 10659 1
 8947 10662 10659 1
 8948 10663 10662 1
 8949 10665 10664 1
 8950 10666 10665 1
 8951 10667 10665 1
 8952 10668 10665 1
 8953 10669 10668 1
 8954 10671 10670 1
 8955 10672 10671 1
 8956 10673 10671 1
 8957 10674 10671 1
 8958 10675 10674 1
 8959 10677 10676 1
 8960 10678 10677 1
 8961 10679 10677 1
 8962 10680 10677 1
 8963 10681 10680 1
 8964 10683 10682 1
 8965 10684 10683 1
 8966 10685 10683 1
 8967 10686 10683 1
 8968 10687 10686 1
 8969 10689 10688 1
 8970 10690 10689 1
 8971 10691 10689 1
 8972 10692 10689 1
 8973 10693 10692 1
 8974 10695 10694 1
 8975 10696 10695 1
 8976 10697 10695 1
 8977 10698 10695 1
 8978 10699 10698 1
 8979 10701 10700 1
 8980 10702 10701 1
 8981 10703 10701 1
 8982 10704 10701 1
 8983 10705 10704 1
 8984 10707 10706 1
 8985 10708 10707 1
 8986 10709 10707 1
 8987 10710 10707 1
 8988 10711 10710 1
 8989 10713 10712 1
 8990 10714 10713 1
 8991 10715 10713 1
 8992 10716 10713 1
 8993 10717 10716 1
 8994 10719 10718 1
 8995 10720 10719 1
 8996 10721 10719 1
 8997 10722 10719 1
 8998 10723 10722 1
 8999 10725 10724 1
 9000 10726 10725 1
 9001 10727 10725 1
 9002 10728 10725 1
 9003 10729 10728 1
 9004 10731 10730 1
 9005 10732 10731 1
 9006 10733 10731 1
 9007 10734 10731 1
 9008 10735 10734 1
 9009 10737 10736 1
 9010 10738 10737 1
 9011 10739 10737 1
 9012 10740 10737 1
 9013 10741 10740 1
 9014 10743 10742 1
 9015 10744 10743 1
 9016 10745 10743 1
 9017 10746 10743 1
 9018 10747 10746 1
 9019 10749 10748 1
 9020 10750 10749 1
 9021 10751 10749 1
 9022 10752 10749 1
 9023 10753 10752 1
 9024 10755 10754 1
 9025 10756 10755 1
 9026 10757 10755 1
 9027 10758 10755 1
 9028 10759 10758 1
 9029 10761 10760 1
 9030 10762 10761 1
 9031 10763 10761 1
 9032 10764 10761 1
 9033 10765 10764 1
 9034 10767 10766 1
 9035 10768 10767 1
 9036 10769 10767 1
 9037 10770 10767 1
 9038 10771 10770 1
 9039 10773 10772 1
 9040 10774 10773 1
 9041 10775 10773 1
 9042 10776 10773 1
 9043 10777 10776 1
 9044 10779 10778 1
 9045 10780 10779 1
 9046 10781 10779 1
 9047 10782 10779 1
 9048 10783 10782 1
 9049 10785 10784 1
 9050 10786 10785 1
 9051 10787 10785 1
 9052 10788 10785 1
 9053 10789 10788 1
 9054 10791 10790 1
 9055 10792 10791 1
 9056 10793 10791 1
 9057 10794 10791 1
 9058 10795 10794 1
 9059 10797 10796 1
 9060 10798 10797 1
 9061 10799 10797 1
 9062 10800 10797 1
 9063 10801 10800 1
 9064 10803 10802 1
 9065 10804 10803 1
 9066 10805 10803 1
 9067 10806 10803 1
 9068 10807 10806 1
 9069 10809 10808 1
 9070 10810 10809 1
 9071 10811 10809 1
 9072 10812 10809 1
 9073 10813 10812 1
 9074 10815 10814 1
 9075 10816 10815 1
 9076 10817 10815 1
 9077 10818 10815 1
 9078 10819 10818 1
 9079 10821 10820 1
 9080 10822 10821 1
 9081 10823 10821 1
 9082 10824 10821 1
 9083 10825 10824 1
 9084 10827 10826 1
 9085 10828 10827 1
 9086 10829 10827 1
 9087 10830 10827 1
 9088 10831 10830 1
 9089 10833 10832 1
 9090 10834 10833 1
 9091 10835 10833 1
 9092 10836 10833 1
 9093 10837 10836 1
 9094 10839 10838 1
 9095 10840 10839 1
 9096 10841 10839 1
 9097 10842 10839 1
 9098 10843 10842 1
 9099 10845 10844 1
 9100 10846 10845 1
 9101 10847 10845 1
 9102 10848 10845 1
 9103 10849 10848 1
 9104 10851 10850 1
 9105 10852 10851 1
 9106 10853 10851 1
 9107 10854 10851 1
 9108 10855 10854 1
 9109 10857 10856 1
 9110 10858 10857 1
 9111 10859 10857 1
 9112 10860 10857 1
 9113 10861 10860 1
 9114 10863 10862 1
 9115 10864 10863 1
 9116 10865 10863 1
 9117 10866 10863 1
 9118 10867 10866 1
 9119 10869 10868 1
 9120 10870 10869 1
 9121 10871 10869 1
 9122 10872 10869 1
 9123 10873 10872 1
 9124 10875 10874 1
 9125 10876 10875 1
 9126 10877 10875 1
 9127 10878 10875 1
 9128 10879 10878 1
 9129 10881 10880 1
 9130 10882 10881 1
 9131 10883 10881 1
 9132 10884 10881 1
 9133 10885 10884 1
 9134 10887 10886 1
 9135 10888 10887 1
 9136 10889 10887 1
 9137 10890 10887 1
 9138 10891 10890 1
 9139 10893 10892 1
 9140 10894 10893 1
 9141 10895 10893 1
 9142 10896 10893 1
 9143 10897 10896 1
 9144 10899 10898 1
 9145 10900 10899 1
 9146 10901 10899 1
 9147 10902 10899 1
 9148 10903 10902 1
 9149 10905 10904 1
 9150 10906 10905 1
 9151 10907 10905 1
 9152 10908 10905 1
 9153 10909 10908 1
 9154 10911 10910 1
 9155 10912 10911 1
 9156 10913 10911 1
 9157 10914 10911 1
 9158 10915 10914 1
 9159 10917 10916 1
 9160 10918 10917 1
 9161 10919 10917 1
 9162 10920 10917 1
 9163 10921 10920 1
 9164 10923 10922 1
 9165 10924 10923 1
 9166 10925 10923 1
 9167 10926 10923 1
 9168 10927 10926 1
 9169 10929 10928 1
 9170 10930 10929 1
 9171 10931 10929 1
 9172 10932 10929 1
 9173 10933 10932 1
 9174 10935 10934 1
 9175 10936 10935 1
 9176 10937 10935 1
 9177 10938 10935 1
 9178 10939 10938 1
 9179 10941 10940 1
 9180 10942 10941 1
 9181 10943 10941 1
 9182 10944 10941 1
 9183 10945 10944 1
 9184 10947 10946 1
 9185 10948 10947 1
 9186 10949 10947 1
 9187 10950 10947 1
 9188 10951 10950 1
 9189 10953 10952 1
 9190 10954 10953 1
 9191 10955 10953 1
 9192 10956 10953 1
 9193 10957 10956 1
 9194 10959 10958 1
 9195 10960 10959 1
 9196 10961 10959 1
 9197 10962 10959 1
 9198 10963 10962 1
 9199 10965 10964 1
 9200 10966 10965 1
 9201 10967 10965 1
 9202 10968 10965 1
 9203 10969 10968 1
 9204 10971 10970 1
 9205 10972 10971 1
 9206 10973 10971 1
 9207 10974 10971 1
 9208 10975 10974 1
 9209 10977 10976 1
 9210 10978 10977 1
 9211 10979 10977 1
 9212 10980 10977 1
 9213 10981 10980 1
 9214 10983 10982 1
 9215 10984 10983 1
 9216 10985 10983 1
 9217 10986 10983 1
 9218 10987 10986 1
 9219 10989 10988 1
 9220 10990 10989 1
 9221 10991 10989 1
 9222 10992 10989 1
 9223 10993 10992 1
 9224 10995 10994 1
 9225 10996 10995 1
 9226 10997 10995 1
 9227 10998 10995 1
 9228 10999 10998 1
 9229 11001 11000 1
 9230 11002 11001 1
 9231 11003 11001 1
 9232 11004 11001 1
 9233 11005 11004 1
 9234 11007 11006 1
 9235 11008 11007 1
 9236 11009 11007 1
 9237 11010 11007 1
 9238 11011 11010 1
 9239 11013 11012 1
 9240 11014 11013 1
 9241 11015 11013 1
 9242 11016 11013 1
 9243 11017 11016 1
 9244 11019 11018 1
 9245 11020 11019 1
 9246 11021 11019 1
 9247 11022 11019 1
 9248 11023 11022 1
 9249 11025 11024 1
 9250 11026 11025 1
 9251 11027 11025 1
 9252 11028 11025 1
 9253 11029 11028 1
 9254 11031 11030 1
 9255 11032 11031 1
 9256 11033 11031 1
 9257 11034 11031 1
 9258 11035 11034 1
 9259 11037 11036 1
 9260 11038 11037 1
 9261 11039 11037 1
 9262 11040 11037 1
 9263 11041 11040 1
 9264 11043 11042 1
 9265 11044 11043 1
 9266 11045 11043 1
 9267 11046 11043 1
 9268 11047 11046 1
 9269 11049 11048 1
 9270 11050 11049 1
 9271 11051 11049 1
 9272 11052 11049 1
 9273 11053 11052 1
 9274 11055 11054 1
 9275 11056 11055 1
 9276 11057 11055 1
 9277 11058 11055 1
 9278 11059 11058 1
 9279 11061 11060 1
 9280 11062 11061 1
 9281 11063 11061 1
 9282 11064 11061 1
 9283 11065 11064 1
 9284 11067 11066 1
 9285 11068 11067 1
 9286 11069 11067 1
 9287 11070 11067 1
 9288 11071 11070 1
 9289 11073 11072 1
 9290 11074 11073 1
 9291 11075 11073 1
 9292 11076 11073 1
 9293 11077 11076 1
 9294 11079 11078 1
 9295 11080 11079 1
 9296 11081 11079 1
 9297 11082 11079 1
 9298 11083 11082 1
 9299 11085 11084 1
 9300 11086 11085 1
 9301 11087 11085 1
 9302 11088 11085 1
 9303 11089 11088 1
 9304 11091 11090 1
 9305 11092 11091 1
 9306 11093 11091 1
 9307 11094 11091 1
 9308 11095 11094 1
 9309 11097 11096 1
 9310 11098 11097 1
 9311 11099 11097 1
 9312 11100 11097 1
 9313 11101 11100 1
 9314 11103 11102 1
 9315 11104 11103 1
 9316 11105 11103 1
 9317 11106 11103 1
 9318 11107 11106 1
 9319 11109 11108 1
 9320 11110 11109 1
 9321 11111 11109 1
 9322 11112 11109 1
 9323 11113 11112 1
 9324 11115 11114 1
 9325 11116 11115 1
 9326 11117 11115 1
 9327 11118 11115 1
 9328 11119 11118 1
 9329 11121 11120 1
 9330 11122 11121 1
 9331 11123 11121 1
 9332 11124 11121 1
 9333 11125 11124 1
 9334 11127 11126 1
 9335 11128 11127 1
 9336 11129 11127 1
 9337 11130 11127 1
 9338 11131 11130 1
 9339 11133 11132 1
 9340 11134 11133 1
 9341 11135 11133 1
 9342 11136 11133 1
 9343 11137 11136 1
 9344 11139 11138 1
 9345 11140 11139 1
 9346 11141 11139 1
 9347 11142 11139 1
 9348 11143 11142 1
 9349 11145 11144 1
 9350 11146 11145 1
 9351 11147 11145 1
 9352 11148 11145 1
 9353 11149 11148 1
 9354 11151 11150 1
 9355 11152 11151 1
 9356 11153 11151 1
 9357 11154 11151 1
 9358 11155 11154 1
 9359 11157 11156 1
 9360 11158 11157 1
 9361 11159 11157 1
 9362 11160 11157 1
 9363 11161 11160 1
 9364 11163 11162 1
 9365 11164 11163 1
 9366 11165 11163 1
 9367 11166 11163 1
 9368 11167 11166 1
 9369 11169 11168 1
 9370 11170 11169 1
 9371 11171 11169 1
 9372 11172 11169 1
 9373 11173 11172 1
 9374 11175 11174 1
 9375 11176 11175 1
 9376 11177 11175 1
 9377 11178 11175 1
 9378 11179 11178 1
 9379 11181 11180 1
 9380 11182 11181 1
 9381 11183 11181 1
 9382 11184 11181 1
 9383 11185 11184 1
 9384 11187 11186 1
 9385 11188 11187 1
 9386 11189 11187 1
 9387 11190 11187 1
 9388 11191 11190 1
 9389 11193 11192 1
 9390 11194 11193 1
 9391 11195 11193 1
 9392 11196 11193 1
 9393 11197 11196 1
 9394 11199 11198 1
 9395 11200 11199 1
 9396 11201 11199 1
 9397 11202 11199 1
 9398 11203 11202 1
 9399 11205 11204 1
 9400 11206 11205 1
 9401 11207 11205 1
 9402 11208 11205 1
 9403 11209 11208 1
 9404 11211 11210 1
 9405 11212 11211 1
 9406 11213 11211 1
 9407 11214 11211 1
 9408 11215 11214 1
 9409 11217 11216 1
 9410 11218 11217 1
 9411 11219 11217 1
 9412 11220 11217 1
 9413 11221 11220 1
 9414 11223 11222 1
 9415 11224 11223 1
 9416 11225 11223 1
 9417 11226 11223 1
 9418 11227 11226 1
 9419 11229 11228 1
 9420 11230 11229 1
 9421 11231 11229 1
 9422 11232 11229 1
 9423 11233 11232 1
 9424 11235 11234 1
 9425 11236 11235 1
 9426 11237 11235 1
 9427 11238 11235 1
 9428 11239 11238 1
 9429 11241 11240 1
 9430 11242 11241 1
 9431 11243 11241 1
 9432 11244 11241 1
 9433 11245 11244 1
 9434 11247 11246 1
 9435 11248 11247 1
 9436 11249 11247 1
 9437 11250 11247 1
 9438 11251 11250 1
 9439 11253 11252 1
 9440 11254 11253 1
 9441 11255 11253 1
 9442 11256 11253 1
 9443 11257 11256 1
 9444 11259 11258 1
 9445 11260 11259 1
 9446 11261 11259 1
 9447 11262 11259 1
 9448 11263 11262 1
 9449 11265 11264 1
 9450 11266 11265 1
 9451 11267 11265 1
 9452 11268 11265 1
 9453 11269 11268 1
 9454 11271 11270 1
 9455 11272 11271 1
 9456 11273 11271 1
 9457 11274 11271 1
 9458 11275 11274 1
 9459 11277 11276 1
 9460 11278 11277 1
 9461 11279 11277 1
 9462 11280 11277 1
 9463 11281 11280 1
 9464 11283 11282 1
 9465 11284 11283 1
 9466 11285 11283 1
 9467 11286 11283 1
 9468 11287 11286 1
 9469 11289 11288 1
 9470 11290 11289 1
 9471 11291 11289 1
 9472 11292 11289 1
 9473 11293 11292 1
 9474 11295 11294 1
 9475 11296 11295 1
 9476 11297 11295 1
 9477 11298 11295 1
 9478 11299 11298 1
 9479 11301 11300 1
 9480 11302 11301 1
 9481 11303 11301 1
 9482 11304 11301 1
 9483 11305 11304 1
 9484 11307 11306 1
 9485 11308 11307 1
 9486 11309 11307 1
 9487 11310 11307 1
 9488 11311 11310 1
 9489 11313 11312 1
 9490 11314 11313 1
 9491 11315 11313 1
 9492 11316 11313 1
 9493 11317 11316 1
 9494 11319 11318 1
 9495 11320 11319 1
 9496 11321 11319 1
 9497 11322 11319 1
 9498 11323 11322 1
 9499 11325 11324 1
 9500 11326 11325 1
 9501 11327 11325 1
 9502 11328 11325 1
 9503 11329 11328 1
 9504 11331 11330 1
 9505 11332 11331 1
 9506 11333 11331 1
 9507 11334 11331 1
 9508 11335 11334 1
 9509 11337 11336 1
 9510 11338 11337 1
 9511 11339 11337 1
 9512 11340 11337 1
 9513 11341 11340 1
 9514 11343 11342 1
 9515 11344 11343 1
 9516 11345 11343 1
 9517 11346 11343 1
 9518 11347 11346 1
 9519 11349 11348 1
 9520 11350 11349 1
 9521 11351 11349 1
 9522 11352 11349 1
 9523 11353 11352 1
 9524 11355 11354 1
 9525 11356 11355 1
 9526 11357 11355 1
 9527 11358 11355 1
 9528 11359 11358 1
 9529 11361 11360 1
 9530 11362 11361 1
 9531 11363 11361 1
 9532 11364 11361 1
 9533 11365 11364 1
 9534 11367 11366 1
 9535 11368 11367 1
 9536 11369 11367 1
 9537 11370 11367 1
 9538 11371 11370 1
 9539 11373 11372 1
 9540 11374 11373 1
 9541 11375 11373 1
 9542 11376 11373 1
 9543 11377 11376 1
 9544 11379 11378 1
 9545 11380 11379 1
 9546 11381 11379 1
 9547 11382 11379 1
 9548 11383 11382 1
 9549 11385 11384 1
 9550 11386 11385 1
 9551 11387 11385 1
 9552 11388 11385 1
 9553 11389 11388 1
 9554 11391 11390 1
 9555 11392 11391 1
 9556 11393 11391 1
 9557 11394 11391 1
 9558 11395 11394 1
 9559 11397 11396 1
 9560 11398 11397 1
 9561 11399 11397 1
 9562 11400 11397 1
 9563 11401 11400 1
 9564 11403 11402 1
 9565 11404 11403 1
 9566 11405 11403 1
 9567 11406 11403 1
 9568 11407 11406 1
 9569 11409 11408 1
 9570 11410 11409 1
 9571 11411 11409 1
 9572 11412 11409 1
 9573 11413 11412 1
 9574 11415 11414 1
 9575 11416 11415 1
 9576 11417 11415 1
 9577 11418 11415 1
 9578 11419 11418 1
 9579 11421 11420 1
 9580 11422 11421 1
 9581 11423 11421 1
 9582 11424 11421 1
 9583 11425 11424 1
 9584 11427 11426 1
 9585 11428 11427 1
 9586 11429 11427 1
 9587 11430 11427 1
 9588 11431 11430 1
 9589 11433 11432 1
 9590 11434 11433 1
 9591 11435 11433 1
 9592 11436 11433 1
 9593 11437 11436 1
 9594 11439 11438 1
 9595 11440 11439 1
 9596 11441 11439 1
 9597 11442 11439 1
 9598 11443 11442 1
 9599 11445 11444 1
 9600 11446 11445 1
 9601 11447 11445 1
 9602 11448 11445 1
 9603 11449 11448 1
 9604 11451 11450 1
 9605 11452 11451 1
 9606 11453 11451 1
 9607 11454 11451 1
 9608 11455 11454 1
 9609 11457 11456 1
 9610 11458 11457 1
 9611 11459 11457 1
 9612 11460 11457 1
 9613 11461 11460 1
 9614 11463 11462 1
 9615 11464 11463 1
 9616 11465 11463 1
 9617 11466 11463 1
 9618 11467 11466 1
 9619 11469 11468 1
 9620 11470 11469 1
 9621 11471 11469 1
 9622 11472 11469 1
 9623 11473 11472 1
 9624 11475 11474 1
 9625 11476 11475 1
 9626 11477 11475 1
 9627 11478 11475 1
 9628 11479 11478 1
 9629 11481 11480 1
 9630 11482 11481 1
 9631 11483 11481 1
 9632 11484 11481 1
 9633 11485 11484 1
 9634 11487 11486 1
 9635 11488 11487 1
 9636 11489 11487 1
 9637 11490 11487 1
 9638 11491 11490 1
 9639 11493 11492 1
 9640 11494 11493 1
 9641 11495 11493 1
 9642 11496 11493 1
 9643 11497 11496 1
 9644 11499 11498 1
 9645 11500 11499 1
 9646 11501 11499 1
 9647 11502 11499 1
 9648 11503 11502 1
 9649 11505 11504 1
 9650 11506 11505 1
 9651 11507 11505 1
 9652 11508 11505 1
 9653 11509 11508 1
 9654 11511 11510 1
 9655 11512 11511 1
 9656 11513 11511 1
 9657 11514 11511 1
 9658 11515 11514 1
 9659 11517 11516 1
 9660 11518 11517 1
 9661 11519 11517 1
 9662 11520 11517 1
 9663 11521 11520 1
 9664 11523 11522 1
 9665 11524 11523 1
 9666 11525 11523 1
 9667 11526 11523 1
 9668 11527 11526 1
 9669 11529 11528 1
 9670 11530 11529 1
 9671 11531 11529 1
 9672 11532 11529 1
 9673 11533 11532 1
 9674 11535 11534 1
 9675 11536 11535 1
 9676 11537 11535 1
 9677 11538 11535 1
 9678 11539 11538 1
 9679 11541 11540 1
 9680 11542 11541 1
 9681 11543 11541 1
 9682 11544 11541 1
 9683 11545 11544 1
 9684 11547 11546 1
 9685 11548 11547 1
 9686 11549 11547 1
 9687 11550 11547 1
 9688 11551 11550 1
 9689 11553 11552 1
 9690 11554 11553 1
 9691 11555 11553 1
 9692 11556 11553 1
 9693 11557 11556 1
 9694 11559 11558 1
 9695 11560 11559 1
 9696 11561 11559 1
 9697 11562 11559 1
 9698 11563 11562 1
 9699 11565 11564 1
 9700 11566 11565 1
 9701 11567 11565 1
 9702 11568 11565 1
 9703 11569 11568 1
 9704 11571 11570 1
 9705 11572 11571 1
 9706 11573 11571 1
 9707 11574 11571 1
 9708 11575 11574 1
 9709 11577 11576 1
 9710 11578 11577 1
 9711 11579 11577 1
 9712 11580 11577 1
 9713 11581 11580 1
 9714 11583 11582 1
 9715 11584 11583 1
 9716 11585 11583 1
 9717 11586 11583 1
 9718 11587 11586 1
 9719 11589 11588 1
 9720 11590 11589 1
 9721 11591 11589 1
 9722 11592 11589 1
 9723 11593 11592 1
 9724 11595 11594 1
 9725 11596 11595 1
 9726 11597 11595 1
 9727 11598 11595 1
 9728 11599 11598 1
 9729 11601 11600 1
 9730 11602 11601 1
 9731 11603 11601 1
 9732 11604 11601 1
 9733 11605 11604 1
 9734 11607 11606 1
 9735 11608 11607 1
 9736 11609 11607 1
 9737 11610 11607 1
 9738 11611 11610 1
 9739 11613 11612 1
 9740 11614 11613 1
 9741 11615 11613 1
 9742 11616 11613 1
 9743 11617 11616 1
 9744 11619 11618 1
 9745 11620 11619 1
 9746 11621 11619 1
 9747 11622 11619 1
 9748 11623 11622 1
 9749 11625 11624 1
 9750 11626 11625 1
 9751 11627 11625 1
 9752 11628 11625 1
 9753 11629 11628 1
 9754 11631 11630 1
 9755 11632 11631 1
 9756 11633 11631 1
 9757 11634 11631 1
 9758 11635 11634 1
 9759 11637 11636 1
 9760 11638 11637 1
 9761 11639 11637 1
 9762 11640 11637 1
 9763 11641 11640 1
 9764 11643 11642 1
 9765 11644 11643 1
 9766 11645 11643 1
 9767 11646 11643 1
 9768 11647 11646 1
 9769 11649 11648 1
 9770 11650 11649 1
 9771 11651 11649 1
 9772 11652 11649 1
 9773 11653 11652 1
 9774 11655 11654 1
 9775 11656 11655 1
 9776 11657 11655 1
 9777 11658 11655 1
 9778 11659 11658 1
 9779 11661 11660 1
 9780 11662 11661 1
 9781 11663 11661 1
 9782 11664 11661 1
 9783 11665 11664 1
 9784 11667 11666 1
 9785 11668 11667 1
 9786 11669 11667 1
 9787 11670 11667 1
 9788 11671 11670 1
 9789 11673 11672 1
 9790 11674 11673 1
 9791 11675 11673 1
 9792 11676 11673 1
 9793 11677 11676 1
 9794 11679 11678 1
 9795 11680 11679 1
 9796 11681 11679 1
 9797 11682 11679 1
 9798 11683 11682 1
 9799 11685 11684 1
 9800 11686 11685 1
 9801 11687 11685 1
 9802 11688 11685 1
 9803 11689 11688 1
 9804 11691 11690 1
 9805 11692 11691 1
 9806 11693 11691 1
 9807 11694 11691 1
 9808 11695 11694 1
 9809 11697 11696 1
 9810 11698 11697 1
 9811 11699 11697 1
 9812 11700 11697 1
 9813 11701 11700 1
 9814 11703 11702 1
 9815 11704 11703 1
 9816 11705 11703 1
 9817 11706 11703 1
 9818 11707 11706 1
 9819 11709 11708 1
 9820 11710 11709 1
 9821 11711 11709 1
 9822 11712 11709 1
 9823 11713 11712 1
 9824 11715 11714 1
 9825 11716 11715 1
 9826 11717 11715 1
 9827 11718 11715 1
 9828 11719 11718 1
 9829 11721 11720 1
 9830 11722 11721 1
 9831 11723 11721 1
 9832 11724 11721 1
 9833 11725 11724 1
 9834 11727 11726 1
 9835 11728 11727 1
 9836 11729 11727 1
 9837 11730 11727 1
 9838 11731 11730 1
 9839 11733 11732 1
 9840 11734 11733 1
 9841 11735 11733 1
 9842 11736 11733 1
 9843 11737 11736 1
 9844 11739 11738 1
 9845 11740 11739 1
 9846 11741 11739 1
 9847 11742 11739 1
 9848 11743 11742 1
 9849 11745 11744 1
 9850 11746 11745 1
 9851 11747 11745 1
 9852 11748 11745 1
 9853 11749 11748 1
 9854 11751 11750 1
 9855 11752 11751 1
 9856 11753 11751 1
 9857 11754 11751 1
 9858 11755 11754 1
 9859 11757 11756 1
 9860 11758 11757 1
 9861 11759 11757 1
 9862 11760 11757 1
 9863 11761 11760 1
 9864 11763 11762 1
 9865 11764 11763 1
 9866 11765 11763 1
 9867 11766 11763 1
 9868 11767 11766 1
 9869 11769 11768 1
 9870 11770 11769 1
 9871 11771 11769 1
 9872 11772 11769 1
 9873 11773 11772 1
 9874 11775 11774 1
 9875 11776 11775 1
 9876 11777 11775 1
 9877 11778 11775 1
 9878 11779 11778 1
 9879 11781 11780 1
 9880 11782 11781 1
 9881 11783 11781 1
 9882 11784 11781 1
 9883 11785 11784 1
 9884 11787 11786 1
 9885 11788 11787 1
 9886 11789 11787 1
 9887 11790 11787 1
 9888 11791 11790 1
 9889 11793 11792 1
 9890 11794 11793 1
 9891 11795 11793 1
 9892 11796 11793 1
 9893 11797 11796 1
 9894 11799 11798 1
 9895 11800 11799 1
 9896 11801 11799 1
 9897 11802 11799 1
 9898 11803 11802 1
 9899 11805 11804 1
 9900 11806 11805 1
 9901 11807 11805 1
 9902 11808 11805 1
 9903 11809 11808 1
 9904 11811 11810 1
 9905 11812 11811 1
 9906 11813 11811 1
 9907 11814 11811 1
 9908 11815 11814 1
 9909 11817 11816 1
 9910 11818 11817 1
 9911 11819 11817 1
 9912 11820 11817 1
 9913 11821 11820 1
 9914 11823 11822 1
 9915 11824 11823 1
 9916 11825 11823 1
 9917 11826 11823 1
 9918 11827 11826 1
 9919 11829 11828 1
 9920 11830 11829 1
 9921 11831 11829 1
 9922 11832 11829 1
 9923 11833 11832 1
 9924 11835 11834 1
 9925 11836 11835 1
 9926 11837 11835 1
 9927 11838 11835 1
 9928 11839 11838 1
 9929 11841 11840 1
 9930 11842 11841 1
 9931 11843 11841 1
 9932 11844 11841 1
 9933 11845 11844 1
 9934 11847 11846 1
 9935 11848 11847 1
 9936 11849 11847 1
 9937 11850 11847 1
 9938 11851 11850 1
 9939 11853 11852 1
 9940 11854 11853 1
 9941 11855 11853 1
 9942 11856 11853 1
 9943 11857 11856 1
 9944 11859 11858 1
 9945 11860 11859 1
 9946 11861 11859 1
 9947 11862 11859 1
 9948 11863 11862 1
 9949 11865 11864 1
 9950 11866 11865 1
 9951 11867 11865 1
 9952 11868 11865 1
 9953 11869 11868 1
 9954 11871 11870 1
 9955 11872 11871 1
 9956 11873 11871 1
 9957 11874 11871 1
 9958 11875 11874 1
 9959 11877 11876 1
 9960 11878 11877 1
 9961 11879 11877 1
 9962 11880 11877 1
 9963 11881 11880 1
 9964 11883 11882 1
 9965 11884 11883 1
 9966 11885 11883 1
 9967 11886 11883 1
 9968 11887 11886 1
 9969 11889 11888 1
 9970 11890 11889 1
 9971 11891 11889 1
 9972 11892 11889 1
 9973 11893 11892 1
 9974 11895 11894 1
 9975 11896 11895 1
 9976 11897 11895 1
 9977 11898 11895 1
 9978 11899 11898 1
 9979 11901 11900 1
 9980 11902 11901 1
 9981 11903 11901 1
 9982 11904 11901 1
 9983 11905 11904 1
 9984 11907 11906 1
 9985 11908 11907 1
 9986 11909 11907 1
 9987 11910 11907 1
 9988 11911 11910 1
 9989 11913 11912 1
 9990 11914 11913 1
 9991 11915 11913 1
 9992 11916 11913 1
 9993 11917 11916 1
 9994 11919 11918 1
 9995 11920 11919 1
 9996 11921 11919 1
 9997 11922 11919 1
 9998 11923 11922 1
 9999 11925 11924 1
10000 11926 11925 1
10001 11927 11925 1
10002 11928 11925 1
10003 11929 11928 1
10004 11931 11930 1
10005 11932 11931 1
10006 11933 11931 1
10007 11934 11931 1
10008 11935 11934 1
10009 11937 11936 1
10010 11938 11937 1
10011 11939 11937 1
10012 11940 11937 1
10013 11941 11940 1
10014 11943 11942 1
10015 11944 11943 1
10016 11945 11943 1
10017 11946 11943 1
10018 11947 11946 1
10019 11949 11948 1
10020 11950 11949 1
10021 11951 11949 1
10022 11952 11949 1
10023 11953 11952 1
10024 11955 11954 1
10025 11956 11955 1
10026 11957 11955 1
10027 11958 11955 1
10028 11959 11958 1
10029 11961 11960 1
10030 11962 11961 1
10031 11963 11961 1
10032 11964 11961 1
10033 11965 11964 1
10034 11967 11966 1
10035 11968 11967 1
10036 11969 11967 1
10037 11970 11967 1
10038 11971 11970 1
10039 11973 11972 1
10040 11974 11973 1
10041 11975 11973 1
10042 11976 11973 1
10043 11977 11976 1
10044 11979 11978 1
10045 11980 11979 1
10046 11981 11979 1
10047 11982 11979 1
10048 11983 11982 1
10049 11985 11984 1
10050 11986 11985 1
10051 11987 11985 1
10052 11988 11985 1
10053 11989 11988 1
10054 11991 11990 1
10055 11992 11991 1
10056 11993 11991 1
10057 11994 11991 1
10058 11995 11994 1
10059 11997 11996 1
10060 11998 11997 1
10061 11999 11997 1
10062 12000 11997 1
10063 12001 12000 1
10064 12003 12002 1
10065 12004 12003 1
10066 12005 12003 1
10067 12006 12003 1
10068 12007 12006 1
10069 12009 12008 1
10070 12010 12009 1
10071 12011 12009 1
10072 12012 12009 1
10073 12013 12012 1
10074 12015 12014 1
10075 12016 12015 1
10076 12017 12015 1
10077 12018 12015 1
10078 12019 12018 1
10079 12021 12020 1
10080 12022 12021 1
10081 12023 12021 1
10082 12024 12021 1
10083 12025 12024 1
10084 12027 12026 1
10085 12028 12027 1
10086 12029 12027 1
10087 12030 12027 1
10088 12031 12030 1
10089 12033 12032 1
10090 12034 12033 1
10091 12035 12033 1
10092 12036 12033 1
10093 12037 12036 1
10094 12039 12038 1
10095 12040 12039 1
10096 12041 12039 1
10097 12042 12039 1
10098 12043 12042 1
10099 12045 12044 1
10100 12046 12045 1
10101 12047 12045 1
10102 12048 12045 1
10103 12049 12048 1
10104 12051 12050 1
10105 12052 12051 1
10106 12053 12051 1
10107 12054 12051 1
10108 12055 12054 1
10109 12057 12056 1
10110 12058 12057 1
10111 12059 12057 1
10112 12060 12057 1
10113 12061 12060 1
10114 12063 12062 1
10115 12064 12063 1
10116 12065 12063 1
10117 12066 12063 1
10118 12067 12066 1
10119 12069 12068 1
10120 12070 12069 1
10121 12071 12069 1
10122 12072 12069 1
10123 12073 12072 1
10124 12075 12074 1
10125 12076 12075 1
10126 12077 12075 1
10127 12078 12075 1
10128 12079 12078 1
10129 12081 12080 1
10130 12082 12081 1
10131 12083 12081 1
10132 12084 12081 1
10133 12085 12084 1
10134 12087 12086 1
10135 12088 12087 1
10136 12089 12087 1
10137 12090 12087 1
10138 12091 12090 1
10139 12093 12092 1
10140 12094 12093 1
10141 12095 12093 1
10142 12096 12093 1
10143 12097 12096 1
10144 12099 12098 1
10145 12100 12099 1
10146 12101 12099 1
10147 12102 12099 1
10148 12103 12102 1
10149 12105 12104 1
10150 12106 12105 1
10151 12107 12105 1
10152 12108 12105 1
10153 12109 12108 1
10154 12111 12110 1
10155 12112 12111 1
10156 12113 12111 1
10157 12114 12111 1
10158 12115 12114 1
10159 12117 12116 1
10160 12118 12117 1
10161 12119 12117 1
10162 12120 12117 1
10163 12121 12120 1
10164 12123 12122 1
10165 12124 12123 1
10166 12125 12123 1
10167 12126 12123 1
10168 12127 12126 1
10169 12129 12128 1
10170 12130 12129 1
10171 12131 12129 1
10172 12132 12129 1
10173 12133 12132 1
10174 12135 12134 1
10175 12136 12135 1
10176 12137 12135 1
10177 12138 12135 1
10178 12139 12138 1
10179 12141 12140 1
10180 12142 12141 1
10181 12143 12141 1
10182 12144 12141 1
10183 12145 12144 1
10184 12147 12146 1
10185 12148 12147 1
10186 12149 12147 1
10187 12150 12147 1
10188 12151 12150 1
10189 12153 12152 1
10190 12154 12153 1
10191 12155 12153 1
10192 12156 12153 1
10193 12157 12156 1
10194 12159 12158 1
10195 12160 12159 1
10196 12161 12159 1
10197 12162 12159 1
10198 12163 12162 1
10199 12165 12164 1
10200 12166 12165 1
10201 12167 12165 1
10202 12168 12165 1
10203 12169 12168 1
10204 12171 12170 1
10205 12172 12171 1
10206 12173 12171 1
10207 12174 12171 1
10208 12175 12174 1
10209 12177 12176 1
10210 12178 12177 1
10211 12179 12177 1
10212 12180 12177 1
10213 12181 12180 1
10214 12183 12182 1
10215 12184 12183 1
10216 12185 12183 1
10217 12186 12183 1
10218 12187 12186 1
10219 12189 12188 1
10220 12190 12189 1
10221 12191 12189 1
10222 12192 12189 1
10223 12193 12192 1
10224 12195 12194 1
10225 12196 12195 1
10226 12197 12195 1
10227 12198 12195 1
10228 12199 12198 1
10229 12201 12200 1
10230 12202 12201 1
10231 12203 12201 1
10232 12204 12201 1
10233 12205 12204 1
10234 12207 12206 1
10235 12208 12207 1
10236 12209 12207 1
10237 12210 12207 1
10238 12211 12210 1
10239 12213 12212 1
10240 12214 12213 1
10241 12215 12213 1
10242 12216 12213 1
10243 12217 12216 1
10244 12219 12218 1
10245 12220 12219 1
10246 12221 12219 1
10247 12222 12219 1
10248 12223 12222 1
10249 12225 12224 1
10250 12226 12225 1
10251 12227 12225 1
10252 12228 12225 1
10253 12229 12228 1
10254 12231 12230 1
10255 12232 12231 1
10256 12233 12231 1
10257 12234 12231 1
10258 12235 12234 1
10259 12237 12236 1
10260 12238 12237 1
10261 12239 12237 1
10262 12240 12237 1
10263 12241 12240 1
10264 12243 12242 1
10265 12244 12243 1
10266 12245 12243 1
10267 12246 12243 1
10268 12247 12246 1
10269 12249 12248 1
10270 12250 12249 1
10271 12251 12249 1
10272 12252 12249 1
10273 12253 12252 1
10274 12255 12254 1
10275 12256 12255 1
10276 12257 12255 1
10277 12258 12255 1
10278 12259 12258 1
10279 12261 12260 1
10280 12262 12261 1
10281 12263 12261 1
10282 12264 12261 1
10283 12265 12264 1
10284 12267 12266 1
10285 12268 12267 1
10286 12269 12267 1
10287 12270 12267 1
10288 12271 12270 1
10289 12273 12272 1
10290 12274 12273 1
10291 12275 12273 1
10292 12276 12273 1
10293 12277 12276 1
10294 12279 12278 1
10295 12280 12279 1
10296 12281 12279 1
10297 12282 12279 1
10298 12283 12282 1
10299 12285 12284 1
10300 12286 12285 1
10301 12287 12285 1
10302 12288 12285 1
10303 12289 12288 1
10304 12291 12290 1
10305 12292 12291 1
10306 12293 12291 1
10307 12294 12291 1
10308 12295 12294 1
10309 12297 12296 1
10310 12298 12297 1
10311 12299 12297 1
10312 12300 12297 1
10313 12301 12300 1
10314 12303 12302 1
10315 12304 12303 1
10316 12305 12303 1
10317 12306 12303 1
10318 12307 12306 1
10319 12309 12308 1
10320 12310 12309 1
10321 12311 12309 1
10322 12312 12309 1
10323 12313 12312 1
10324 12315 12314 1
10325 12316 12315 1
10326 12317 12315 1
10327 12318 12315 1
10328 12319 12318 1
10329 12321 12320 1
10330 12322 12321 1
10331 12323 12321 1
10332 12324 12321 1
10333 12325 12324 1
10334 12327 12326 1
10335 12328 12327 1
10336 12329 12327 1
10337 12330 12327 1
10338 12331 12330 1
10339 12333 12332 1
10340 12334 12333 1
10341 12335 12333 1
10342 12336 12333 1
10343 12337 12336 1
10344 12339 12338 1
10345 12340 12339 1
10346 12341 12339 1
10347 12342 12339 1
10348 12343 12342 1
10349 12345 12344 1
10350 12346 12345 1
10351 12347 12345 1
10352 12348 12345 1
10353 12349 12348 1
10354 12351 12350 1
10355 12352 12351 1
10356 12353 12351 1
10357 12354 12351 1
10358 12355 12354 1
10359 12357 12356 1
10360 12358 12357 1
10361 12359 12357 1
10362 12360 12357 1
10363 12361 12360 1
10364 12363 12362 1
10365 12364 12363 1
10366 12365 12363 1
10367 12366 12363 1
10368 12367 12366 1
10369 12369 12368 1
10370 12370 12369 1
10371 12371 12369 1
10372 12372 12369 1
10373 12373 12372 1
10374 12375 12374 1
10375 12376 12375 1
10376 12377 12375 1
10377 12378 12375 1
10378 12379 12378 1
10379 12381 12380 1
10380 12382 12381 1
10381 12383 12381 1
10382 12384 12381 1
10383 12385 12384 1
10384 12387 12386 1
10385 12388 12387 1
10386 12389 12387 1
10387 12390 12387 1
10388 12391 12390 1
10389 12393 12392 1
10390 12394 12393 1
10391 12395 12393 1
10392 12396 12393 1
10393 12397 12396 1
10394 12399 12398 1
10395 12400 12399 1
10396 12401 12399 1
10397 12402 12399 1
10398 12403 12402 1
10399 12405 12404 1
10400 12406 12405 1
10401 12407 12405 1
10402 12408 12405 1
10403 12409 12408 1
10404 12411 12410 1
10405 12412 12411 1
10406 12413 12411 1
10407 12414 12411 1
10408 12415 12414 1
10409 12417 12416 1
10410 12418 12417 1
10411 12419 12417 1
10412 12420 12417 1
10413 12421 12420 1
10414 12423 12422 1
10415 12424 12423 1
10416 12425 12423 1
10417 12426 12423 1
10418 12427 12426 1
10419 12429 12428 1
10420 12430 12429 1
10421 12431 12429 1
10422 12432 12429 1
10423 12433 12432 1
10424 12435 12434 1
10425 12436 12435 1
10426 12437 12435 1
10427 12438 12435 1
10428 12439 12438 1
10429 12441 12440 1
10430 12442 12441 1
10431 12443 12441 1
10432 12444 12441 1
10433 12445 12444 1
10434 12447 12446 1
10435 12448 12447 1
10436 12449 12447 1
10437 12450 12447 1
10438 12451 12450 1
10439 12453 12452 1
10440 12454 12453 1
10441 12455 12453 1
10442 12456 12453 1
10443 12457 12456 1
10444 12459 12458 1
10445 12460 12459 1
10446 12461 12459 1
10447 12462 12459 1
10448 12463 12462 1
10449 12465 12464 1
10450 12466 12465 1
10451 12467 12465 1
10452 12468 12465 1
10453 12469 12468 1
10454 12471 12470 1
10455 12472 12471 1
10456 12473 12471 1
10457 12474 12471 1
10458 12475 12474 1
10459 12477 12476 1
10460 12478 12477 1
10461 12479 12477 1
10462 12480 12477 1
10463 12481 12480 1
10464 12483 12482 1
10465 12484 12483 1
10466 12485 12483 1
10467 12486 12483 1
10468 12487 12486 1
10469 12489 12488 1
10470 12490 12489 1
10471 12491 12489 1
10472 12492 12489 1
10473 12493 12492 1
10474 12495 12494 1
10475 12496 12495 1
10476 12497 12495 1
10477 12498 12495 1
10478 12499 12498 1
10479 12501 12500 1
10480 12502 12501 1
10481 12503 12501 1
10482 12504 12501 1
10483 12505 12504 1
10484 12507 12506 1
10485 12508 12507 1
10486 12509 12507 1
10487 12510 12507 1
10488 12511 12510 1
10489 12513 12512 1
10490 12514 12513 1
10491 12515 12513 1
10492 12516 12513 1
10493 12517 12516 1
10494 12519 12518 1
10495 12520 12519 1
10496 12521 12519 1
10497 12522 12519 1
10498 12523 12522 1
10499 12525 12524 1
10500 12526 12525 1
10501 12527 12525 1
10502 12528 12525 1
10503 12529 12528 1
10504 12531 12530 1
10505 12532 12531 1
10506 12533 12531 1
10507 12534 12531 1
10508 12535 12534 1
10509 12537 12536 1
10510 12538 12537 1
10511 12539 12537 1
10512 12540 12537 1
10513 12541 12540 1
10514 12543 12542 1
10515 12544 12543 1
10516 12545 12543 1
10517 12546 12543 1
10518 12547 12546 1
10519 12549 12548 1
10520 12550 12549 1
10521 12551 12549 1
10522 12552 12549 1
10523 12553 12552 1
10524 12555 12554 1
10525 12556 12555 1
10526 12557 12555 1
10527 12558 12555 1
10528 12559 12558 1
10529 12561 12560 1
10530 12562 12561 1
10531 12563 12561 1
10532 12564 12561 1
10533 12565 12564 1
10534 12567 12566 1
10535 12568 12567 1
10536 12569 12567 1
10537 12570 12567 1
10538 12571 12570 1
10539 12573 12572 1
10540 12574 12573 1
10541 12575 12573 1
10542 12576 12573 1
10543 12577 12576 1
10544 12579 12578 1
10545 12580 12579 1
10546 12581 12579 1
10547 12582 12579 1
10548 12583 12582 1
10549 12585 12584 1
10550 12586 12585 1
10551 12587 12585 1
10552 12588 12585 1
10553 12589 12588 1
10554 12591 12590 1
10555 12592 12591 1
10556 12593 12591 1
10557 12594 12591 1
10558 12595 12594 1
10559 12597 12596 1
10560 12598 12597 1
10561 12599 12597 1
10562 12600 12597 1
10563 12601 12600 1
10564 12603 12602 1
10565 12604 12603 1
10566 12605 12603 1
10567 12606 12603 1
10568 12607 12606 1
10569 12609 12608 1
10570 12610 12609 1
10571 12611 12609 1
10572 12612 12609 1
10573 12613 12612 1
10574 12615 12614 1
10575 12616 12615 1
10576 12617 12615 1
10577 12618 12615 1
10578 12619 12618 1
10579 12621 12620 1
10580 12622 12621 1
10581 12623 12621 1
10582 12624 12621 1
10583 12625 12624 1
10584 12627 12626 1
10585 12628 12627 1
10586 12629 12627 1
10587 12630 12627 1
10588 12631 12630 1
10589 12633 12632 1
10590 12634 12633 1
10591 12635 12633 1
10592 12636 12633 1
10593 12637 12636 1
10594 12639 12638 1
10595 12640 12639 1
10596 12641 12639 1
10597 12642 12639 1
10598 12643 12642 1
10599 12645 12644 1
10600 12646 12645 1
10601 12647 12645 1
10602 12648 12645 1
10603 12649 12648 1
10604 12651 12650 1
10605 12652 12651 1
10606 12653 12651 1
10607 12654 12651 1
10608 12655 12654 1
10609 12657 12656 1
10610 12658 12657 1
10611 12659 12657 1
10612 12660 12657 1
10613 12661 12660 1
10614 12663 12662 1
10615 12664 12663 1
10616 12665 12663 1
10617 12666 12663 1
10618 12667 12666 1
10619 12669 12668 1
10620 12670 12669 1
10621 12671 12669 1
10622 12672 12669 1
10623 12673 12672 1
10624 12675 12674 1
10625 12676 12675 1
10626 12677 12675 1
10627 12678 12675 1
10628 12679 12678 1
10629 12681 12680 1
10630 12682 12681 1
10631 12683 12681 1
10632 12684 12681 1
10633 12685 12684 1
10634 12687 12686 1
10635 12688 12687 1
10636 12689 12687 1
10637 12690 12687 1
10638 12691 12690 1
10639 12693 12692 1
10640 12694 12693 1
10641 12695 12693 1
10642 12696 12693 1
10643 12697 12696 1
10644 12699 12698 1
10645 12700 12699 1
10646 12701 12699 1
10647 12702 12699 1
10648 12703 12702 1
10649 12705 12704 1
10650 12706 12705 1
10651 12707 12705 1
10652 12708 12705 1
10653 12709 12708 1
10654 12711 12710 1
10655 12712 12711 1
10656 12713 12711 1
10657 12714 12711 1
10658 12715 12714 1
10659 12717 12716 1
10660 12718 12717 1
10661 12719 12717 1
10662 12720 12717 1
10663 12721 12720 1
10664 12723 12722 1
10665 12724 12723 1
10666 12725 12723 1
10667 12726 12723 1
10668 12727 12726 1
10669 12729 12728 1
10670 12730 12729 1
10671 12731 12729 1
10672 12732 12729 1
10673 12733 12732 1
10674 12735 12734 1
10675 12736 12735 1
10676 12737 12735 1
10677 12738 12735 1
10678 12739 12738 1
10679 12741 12740 1
10680 12742 12741 1
10681 12743 12741 1
10682 12744 12741 1
10683 12745 12744 1
10684 12747 12746 1
10685 12748 12747 1
10686 12749 12747 1
10687 12750 12747 1
10688 12751 12750 1
10689 12753 12752 1
10690 12754 12753 1
10691 12755 12753 1
10692 12756 12753 1
10693 12757 12756 1
10694 12759 12758 1
10695 12760 12759 1
10696 12761 12759 1
10697 12762 12759 1
10698 12763 12762 1
10699 12765 12764 1
10700 12766 12765 1
10701 12767 12765 1
10702 12768 12765 1
10703 12769 12768 1
10704 12771 12770 1
10705 12772 12771 1
10706 12773 12771 1
10707 12774 12771 1
10708 12775 12774 1
10709 12777 12776 1
10710 12778 12777 1
10711 12779 12777 1
10712 12780 12777 1
10713 12781 12780 1
10714 12783 12782 1
10715 12784 12783 1
10716 12785 12783 1
10717 12786 12783 1
10718 12787 12786 1
10719 12789 12788 1
10720 12790 12789 1
10721 12791 12789 1
10722 12792 12789 1
10723 12793 12792 1
10724 12795 12794 1
10725 12796 12795 1
10726 12797 12795 1
10727 12798 12795 1
10728 12799 12798 1
10729 12801 12800 1
10730 12802 12801 1
10731 12803 12801 1
10732 12804 12801 1
10733 12805 12804 1
10734 12807 12806 1
10735 12808 12807 1
10736 12809 12807 1
10737 12810 12807 1
10738 12811 12810 1
10739 12813 12812 1
10740 12814 12813 1
10741 12815 12813 1
10742 12816 12813 1
10743 12817 12816 1
10744 12819 12818 1
10745 12820 12819 1
10746 12821 12819 1
10747 12822 12819 1
10748 12823 12822 1
10749 12825 12824 1
10750 12826 12825 1
10751 12827 12825 1
10752 12828 12825 1
10753 12829 12828 1
10754 12831 12830 1
10755 12832 12831 1
10756 12833 12831 1
10757 12834 12831 1
10758 12835 12834 1
10759 12837 12836 1
10760 12838 12837 1
10761 12839 12837 1
10762 12840 12837 1
10763 12841 12840 1
10764 12843 12842 1
10765 12844 12843 1
10766 12845 12843 1
10767 12846 12843 1
10768 12847 12846 1
10769 12849 12848 1
10770 12850 12849 1
10771 12851 12849 1
10772 12852 12849 1
10773 12853 12852 1
10774 12855 12854 1
10775 12856 12855 1
10776 12857 12855 1
10777 12858 12855 1
10778 12859 12858 1
10779 12861 12860 1
10780 12862 12861 1
10781 12863 12861 1
10782 12864 12861 1
10783 12865 12864 1
10784 12867 12866 1
10785 12868 12867 1
10786 12869 12867 1
10787 12870 12867 1
10788 12871 12870 1
10789 12873 12872 1
10790 12874 12873 1
10791 12875 12873 1
10792 12876 12873 1
10793 12877 12876 1
10794 12879 12878 1
10795 12880 12879 1
10796 12881 12879 1
10797 12882 12879 1
10798 12883 12882 1
10799 12885 12884 1
10800 12886 12885 1
10801 12887 12885 1
10802 12888 12885 1
10803 12889 12888 1
10804 12891 12890 1
10805 12892 12891 1
10806 12893 12891 1
10807 12894 12891 1
10808 12895 12894 1
10809 12897 12896 1
10810 12898 12897 1
10811 12899 12897 1
10812 12900 12897 1
10813 12901 12900 1
10814 12903 12902 1
10815 12904 12903 1
10816 12905 12903 1
10817 12906 12903 1
10818 12907 12906 1
10819 12909 12908 1
10820 12910 12909 1
10821 12911 12909 1
10822 12912 12909 1
10823 12913 12912 1
10824 12915 12914 1
10825 12916 12915 1
10826 12917 12915 1
10827 12918 12915 1
10828 12919 12918 1
10829 12921 12920 1
10830 12922 12921 1
10831 12923 12921 1
10832 12924 12921 1
10833 12925 12924 1
10834 12927 12926 1
10835 12928 12927 1
10836 12929 12927 1
10837 12930 12927 1
10838 12931 12930 1
10839 12933 12932 1
10840 12934 12933 1
10841 12935 12933 1
10842 12936 12933 1
10843 12937 12936 1
10844 12939 12938 1
10845 12940 12939 1
10846 12941 12939 1
10847 12942 12939 1
10848 12943 12942 1
10849 12945 12944 1
10850 12946 12945 1
10851 12947 12945 1
10852 12948 12945 1
10853 12949 12948 1
10854 12951 12950 1
10855 12952 12951 1
10856 12953 12951 1
10857 12954 12951 1
10858 12955 12954 1
10859 12957 12956 1
10860 12958 12957 1
10861 12959 12957 1
10862 12960 12957 1
10863 12961 12960 1
10864 12963 12962 1
10865 12964 12963 1
10866 12965 12963 1
10867 12966 12963 1
10868 12967 12966 1
10869 12969 12968 1
10870 12970 12969 1
10871 12971 12969 1
10872 12972 12969 1
10873 12973 12972 1
10874 12975 12974 1
10875 12976 12975 1
10876 12977 12975 1
10877 12978 12975 1
10878 12979 12978 1
10879 12981 12980 1
10880 12982 12981 1
10881 12983 12981 1
10882 12984 12981 1
10883 12985 12984 1
10884 12987 12986 1
10885 12988 12987 1
10886 12989 12987 1
10887 12990 12987 1
10888 12991 12990 1
10889 12993 12992 1
10890 12994 12993 1
10891 12995 12993 1
10892 12996 12993 1
10893 12997 12996 1
10894 12999 12998 1
10895 13000 12999 1
10896 13001 12999 1
10897 13002 12999 1
10898 13003 13002 1
10899 13005 13004 1
10900 13006 13005 1
10901 13007 13005 1
10902 13008 13005 1
10903 13009 13008 1
10904 13011 13010 1
10905 13012 13011 1
10906 13013 13011 1
10907 13014 13011 1
10908 13015 13014 1
10909 13017 13016 1
10910 13018 13017 1
10911 13019 13017 1
10912 13020 13017 1
10913 13021 13020 1
10914 13023 13022 1
10915 13024 13023 1
10916 13025 13023 1
10917 13026 13023 1
10918 13027 13026 1
10919 13029 13028 1
10920 13030 13029 1
10921 13031 13029 1
10922 13032 13029 1
10923 13033 13032 1
10924 13035 13034 1
10925 13036 13035 1
10926 13037 13035 1
10927 13038 13035 1
10928 13039 13038 1
10929 13041 13040 1
10930 13042 13041 1
10931 13043 13041 1
10932 13044 13041 1
10933 13045 13044 1
10934 13047 13046 1
10935 13048 13047 1
10936 13049 13047 1
10937 13050 13047 1
10938 13051 13050 1
10939 13053 13052 1
10940 13054 13053 1
10941 13055 13053 1
10942 13056 13053 1
10943 13057 13056 1
10944 13059 13058 1
10945 13060 13059 1
10946 13061 13059 1
10947 13062 13059 1
10948 13063 13062 1
10949 13065 13064 1
10950 13066 13065 1
10951 13067 13065 1
10952 13068 13065 1
10953 13069 13068 1
10954 13071 13070 1
10955 13072 13071 1
10956 13073 13071 1
10957 13074 13071 1
10958 13075 13074 1
10959 13077 13076 1
10960 13078 13077 1
10961 13079 13077 1
10962 13080 13077 1
10963 13081 13080 1
10964 13083 13082 1
10965 13084 13083 1
10966 13085 13083 1
10967 13086 13083 1
10968 13087 13086 1
10969 13089 13088 1
10970 13090 13089 1
10971 13091 13089 1
10972 13092 13089 1
10973 13093 13092 1
10974 13095 13094 1
10975 13096 13095 1
10976 13097 13095 1
10977 13098 13095 1
10978 13099 13098 1
10979 13101 13100 1
10980 13102 13101 1
10981 13103 13101 1
10982 13104 13101 1
10983 13105 13104 1
10984 13107 13106 1
10985 13108 13107 1
10986 13109 13107 1
10987 13110 13107 1
10988 13111 13110 1
10989 13113 13112 1
10990 13114 13113 1
10991 13115 13113 1
10992 13116 13113 1
10993 13117 13116 1
10994 13119 13118 1
10995 13120 13119 1
10996 13121 13119 1
10997 13122 13119 1
10998 13123 13122 1
10999 13125 13124 1
11000 13126 13125 1
11001 13127 13125 1
11002 13128 13125 1
11003 13129 13128 1
11004 13131 13130 1
11005 13132 13131 1
11006 13133 13131 1
11007 13134 13131 1
11008 13135 13134 1
11009 13137 13136 1
11010 13138 13137 1
11011 13139 13137 1
11012 13140 13137 1
11013 13141 13140 1
11014 13143 13142 1
11015 13144 13143 1
11016 13145 13143 1
11017 13146 13143 1
11018 13147 13146 1
11019 13149 13148 1
11020 13150 13149 1
11021 13151 13149 1
11022 13152 13149 1
11023 13153 13152 1
11024 13155 13154 1
11025 13156 13155 1
11026 13157 13155 1
11027 13158 13155 1
11028 13159 13158 1
11029 13161 13160 1
11030 13162 13161 1
11031 13163 13161 1
11032 13164 13161 1
11033 13165 13164 1
11034 13167 13166 1
11035 13168 13167 1
11036 13169 13167 1
11037 13170 13167 1
11038 13171 13170 1
11039 13173 13172 1
11040 13174 13173 1
11041 13175 13173 1
11042 13176 13173 1
11043 13177 13176 1
11044 13179 13178 1
11045 13180 13179 1
11046 13181 13179 1
11047 13182 13179 1
11048 13183 13182 1
11049 13185 13184 1
11050 13186 13185 1
11051 13187 13185 1
11052 13188 13185 1
11053 13189 13188 1
11054 13191 13190 1
11055 13192 13191 1
11056 13193 13191 1
11057 13194 13191 1
11058 13195 13194 1
11059 13197 13196 1
11060 13198 13197 1
11061 13199 13197 1
11062 13200 13197 1
11063 13201 13200 1
11064 13203 13202 1
11065 13204 13203 1
11066 13205 13203 1
11067 13206 13203 1
11068 13207 13206 1
11069 13209 13208 1
11070 13210 13209 1
11071 13211 13209 1
11072 13212 13209 1
11073 13213 13212 1
11074 13215 13214 1
11075 13216 13215 1
11076 13217 13215 1
11077 13218 13215 1
11078 13219 13218 1
11079 13221 13220 1
11080 13222 13221 1
11081 13223 13221 1
11082 13224 13221 1
11083 13225 13224 1
11084 13227 13226 1
11085 13228 13227 1
11086 13229 13227 1
11087 13230 13227 1
11088 13231 13230 1
11089 13233 13232 1
11090 13234 13233 1
11091 13235 13233 1
11092 13236 13233 1
11093 13237 13236 1
11094 13239 13238 1
11095 13240 13239 1
11096 13241 13239 1
11097 13242 13239 1
11098 13243 13242 1
11099 13245 13244 1
11100 13246 13245 1
11101 13247 13245 1
11102 13248 13245 1
11103 13249 13248 1
11104 13251 13250 1
11105 13252 13251 1
11106 13253 13251 1
11107 13254 13251 1
11108 13255 13254 1
11109 13257 13256 1
11110 13258 13257 1
11111 13259 13257 1
11112 13260 13257 1
11113 13261 13260 1
11114 13263 13262 1
11115 13264 13263 1
11116 13265 13263 1
11117 13266 13263 1
11118 13267 13266 1
11119 13269 13268 1
11120 13270 13269 1
11121 13271 13269 1
11122 13272 13269 1
11123 13273 13272 1
11124 13275 13274 1
11125 13276 13275 1
11126 13277 13275 1
11127 13278 13275 1
11128 13279 13278 1
11129 13281 13280 1
11130 13282 13281 1
11131 13283 13281 1
11132 13284 13281 1
11133 13285 13284 1
11134 13287 13286 1
11135 13288 13287 1
11136 13289 13287 1
11137 13290 13287 1
11138 13291 13290 1
11139 13293 13292 1
11140 13294 13293 1
11141 13295 13293 1
11142 13296 13293 1
11143 13297 13296 1
11144 13299 13298 1
11145 13300 13299 1
11146 13301 13299 1
11147 13302 13299 1
11148 13303 13302 1
11149 13305 13304 1
11150 13306 13305 1
11151 13307 13305 1
11152 13308 13305 1
11153 13309 13308 1
11154 13311 13310 1
11155 13312 13311 1
11156 13313 13311 1
11157 13314 13311 1
11158 13315 13314 1
11159 13317 13316 1
11160 13318 13317 1
11161 13319 13317 1
11162 13320 13317 1
11163 13321 13320 1
11164 13323 13322 1
11165 13324 13323 1
11166 13325 13323 1
11167 13326 13323 1
11168 13327 13326 1
11169 13329 13328 1
11170 13330 13329 1
11171 13331 13329 1
11172 13332 13329 1
11173 13333 13332 1
11174 13335 13334 1
11175 13336 13335 1
11176 13337 13335 1
11177 13338 13335 1
11178 13339 13338 1
11179 13341 13340 1
11180 13342 13341 1
11181 13343 13341 1
11182 13344 13341 1
11183 13345 13344 1
11184 13347 13346 1
11185 13348 13347 1
11186 13349 13347 1
11187 13350 13347 1
11188 13351 13350 1
11189 13353 13352 1
11190 13354 13353 1
11191 13355 13353 1
11192 13356 13353 1
11193 13357 13356 1
11194 13359 13358 1
11195 13360 13359 1
11196 13361 13359 1
11197 13362 13359 1
11198 13363 13362 1
11199 13365 13364 1
11200 13366 13365 1
11201 13367 13365 1
11202 13368 13365 1
11203 13369 13368 1
11204 13371 13370 1
11205 13372 13371 1
11206 13373 13371 1
11207 13374 13371 1
11208 13375 13374 1
11209 13377 13376 1
11210 13378 13377 1
11211 13379 13377 1
11212 13380 13377 1
11213 13381 13380 1
11214 13383 13382 1
11215 13384 13383 1
11216 13385 13383 1
11217 13386 13383 1
11218 13387 13386 1
11219 13389 13388 1
11220 13390 13389 1
11221 13391 13389 1
11222 13392 13389 1
11223 13393 13392 1
11224 13395 13394 1
11225 13396 13395 1
11226 13397 13395 1
11227 13398 13395 1
11228 13399 13398 1
11229 13401 13400 1
11230 13402 13401 1
11231 13403 13401 1
11232 13404 13401 1
11233 13405 13404 1
11234 13407 13406 1
11235 13408 13407 1
11236 13409 13407 1
11237 13410 13407 1
11238 13411 13410 1
11239 13413 13412 1
11240 13414 13413 1
11241 13415 13413 1
11242 13416 13413 1
11243 13417 13416 1
11244 13419 13418 1
11245 13420 13419 1
11246 13421 13419 1
11247 13422 13419 1
11248 13423 13422 1
11249 13425 13424 1
11250 13426 13425 1
11251 13427 13425 1
11252 13428 13425 1
11253 13429 13428 1
11254 13431 13430 1
11255 13432 13431 1
11256 13433 13431 1
11257 13434 13431 1
11258 13435 13434 1
11259 13437 13436 1
11260 13438 13437 1
11261 13439 13437 1
11262 13440 13437 1
11263 13441 13440 1
11264 13443 13442 1
11265 13444 13443 1
11266 13445 13443 1
11267 13446 13443 1
11268 13447 13446 1
11269 13449 13448 1
11270 13450 13449 1
11271 13451 13449 1
11272 13452 13449 1
11273 13453 13452 1
11274 13455 13454 1
11275 13456 13455 1
11276 13457 13455 1
11277 13458 13455 1
11278 13459 13458 1
11279 13461 13460 1
11280 13462 13461 1
11281 13463 13461 1
11282 13464 13461 1
11283 13465 13464 1
11284 13467 13466 1
11285 13468 13467 1
11286 13469 13467 1
11287 13470 13467 1
11288 13471 13470 1
11289 13473 13472 1
11290 13474 13473 1
11291 13475 13473 1
11292 13476 13473 1
11293 13477 13476 1
11294 13479 13478 1
11295 13480 13479 1
11296 13481 13479 1
11297 13482 13479 1
11298 13483 13482 1
11299 13485 13484 1
11300 13486 13485 1
11301 13487 13485 1
11302 13488 13485 1
11303 13489 13488 1
11304 13491 13490 1
11305 13492 13491 1
11306 13493 13491 1
11307 13494 13491 1
11308 13495 13494 1
11309 13497 13496 1
11310 13498 13497 1
11311 13499 13497 1
11312 13500 13497 1
11313 13501 13500 1
11314 13503 13502 1
11315 13504 13503 1
11316 13505 13503 1
11317 13506 13503 1
11318 13507 13506 1
11319 13509 13508 1
11320 13510 13509 1
11321 13511 13509 1
11322 13512 13509 1
11323 13513 13512 1
11324 13515 13514 1
11325 13516 13515 1
11326 13517 13515 1
11327 13518 13515 1
11328 13519 13518 1
11329 13521 13520 1
11330 13522 13521 1
11331 13523 13521 1
11332 13524 13521 1
11333 13525 13524 1
11334 13527 13526 1
11335 13528 13527 1
11336 13529 13527 1
11337 13530 13527 1
11338 13531 13530 1
11339 13533 13532 1
11340 13534 13533 1
11341 13535 13533 1
11342 13536 13533 1
11343 13537 13536 1
11344 13539 13538 1
11345 13540 13539 1
11346 13541 13539 1
11347 13542 13539 1
11348 13543 13542 1
11349 13545 13544 1
11350 13546 13545 1
11351 13547 13545 1
11352 13548 13545 1
11353 13549 13548 1
11354 13551 13550 1
11355 13552 13551 1
11356 13553 13551 1
11357 13554 13551 1
11358 13555 13554 1
11359 13557 13556 1
11360 13558 13557 1
11361 13559 13557 1
11362 13560 13557 1
11363 13561 13560 1
11364 13563 13562 1
11365 13564 13563 1
11366 13565 13563 1
11367 13566 13563 1
11368 13567 13566 1
11369 13569 13568 1
11370 13570 13569 1
11371 13571 13569 1
11372 13572 13569 1
11373 13573 13572 1
11374 13575 13574 1
11375 13576 13575 1
11376 13577 13575 1
11377 13578 13575 1
11378 13579 13578 1
11379 13581 13580 1
11380 13582 13581 1
11381 13583 13581 1
11382 13584 13581 1
11383 13585 13584 1
11384 13587 13586 1
11385 13588 13587 1
11386 13589 13587 1
11387 13590 13587 1
11388 13591 13590 1
11389 13593 13592 1
11390 13594 13593 1
11391 13595 13593 1
11392 13596 13593 1
11393 13597 13596 1
11394 13599 13598 1
11395 13600 13599 1
11396 13601 13599 1
11397 13602 13599 1
11398 13603 13602 1
11399 13605 13604 1
11400 13606 13605 1
11401 13607 13605 1
11402 13608 13605 1
11403 13609 13608 1
11404 13611 13610 1
11405 13612 13611 1
11406 13613 13611 1
11407 13614 13611 1
11408 13615 13614 1
11409 13617 13616 1
11410 13618 13617 1
11411 13619 13617 1
11412 13620 13617 1
11413 13621 13620 1
11414 13623 13622 1
11415 13624 13623 1
11416 13625 13623 1
11417 13626 13623 1
11418 13627 13626 1
11419 13629 13628 1
11420 13630 13629 1
11421 13631 13629 1
11422 13632 13629 1
11423 13633 13632 1
11424 13635 13634 1
11425 13636 13635 1
11426 13637 13635 1
11427 13638 13635 1
11428 13639 13638 1
11429 13641 13640 1
11430 13642 13641 1
11431 13643 13641 1
11432 13644 13641 1
11433 13645 13644 1
11434 13647 13646 1
11435 13648 13647 1
11436 13649 13647 1
11437 13650 13647 1
11438 13651 13650 1
11439 13653 13652 1
11440 13654 13653 1
11441 13655 13653 1
11442 13656 13653 1
11443 13657 13656 1
11444 13659 13658 1
11445 13660 13659 1
11446 13661 13659 1
11447 13662 13659 1
11448 13663 13662 1
11449 13665 13664 1
11450 13666 13665 1
11451 13667 13665 1
11452 13668 13665 1
11453 13669 13668 1
11454 13671 13670 1
11455 13672 13671 1
11456 13673 13671 1
11457 13674 13671 1
11458 13675 13674 1
11459 13677 13676 1
11460 13678 13677 1
11461 13679 13677 1
11462 13680 13677 1
11463 13681 13680 1
11464 13683 13682 1
11465 13684 13683 1
11466 13685 13683 1
11467 13686 13683 1
11468 13687 13686 1
11469 13689 13688 1
11470 13690 13689 1
11471 13691 13689 1
11472 13692 13689 1
11473 13693 13692 1
11474 13695 13694 1
11475 13696 13695 1
11476 13697 13695 1
11477 13698 13695 1
11478 13699 13698 1
11479 13701 13700 1
11480 13702 13701 1
11481 13703 13701 1
11482 13704 13701 1
11483 13705 13704 1
11484 13707 13706 1
11485 13708 13707 1
11486 13709 13707 1
11487 13710 13707 1
11488 13711 13710 1
11489 13713 13712 1
11490 13714 13713 1
11491 13715 13713 1
11492 13716 13713 1
11493 13717 13716 1
11494 13719 13718 1
11495 13720 13719 1
11496 13721 13719 1
11497 13722 13719 1
11498 13723 13722 1
11499 13725 13724 1
11500 13726 13725 1
11501 13727 13725 1
11502 13728 13725 1
11503 13729 13728 1
11504 13731 13730 1
11505 13732 13731 1
11506 13733 13731 1
11507 13734 13731 1
11508 13735 13734 1
11509 13737 13736 1
11510 13738 13737 1
11511 13739 13737 1
11512 13740 13737 1
11513 13741 13740 1
11514 13743 13742 1
11515 13744 13743 1
11516 13745 13743 1
11517 13746 13743 1
11518 13747 13746 1
11519 13749 13748 1
11520 13750 13749 1
11521 13751 13749 1
11522 13752 13749 1
11523 13753 13752 1
11524 13755 13754 1
11525 13756 13755 1
11526 13757 13755 1
11527 13758 13755 1
11528 13759 13758 1
11529 13761 13760 1
11530 13762 13761 1
11531 13763 13761 1
11532 13764 13761 1
11533 13765 13764 1
11534 13767 13766 1
11535 13768 13767 1
11536 13769 13767 1
11537 13770 13767 1
11538 13771 13770 1
11539 13773 13772 1
11540 13774 13773 1
11541 13775 13773 1
11542 13776 13773 1
11543 13777 13776 1
11544 13779 13778 1
11545 13780 13779 1
11546 13781 13779 1
11547 13782 13779 1
11548 13783 13782 1
11549 13785 13784 1
11550 13786 13785 1
11551 13787 13785 1
11552 13788 13785 1
11553 13789 13788 1
11554 13791 13790 1
11555 13792 13791 1
11556 13793 13791 1
11557 13794 13791 1
11558 13795 13794 1
11559 13797 13796 1
11560 13798 13797 1
11561 13799 13797 1
11562 13800 13797 1
11563 13801 13800 1
11564 13803 13802 1
11565 13804 13803 1
11566 13805 13803 1
11567 13806 13803 1
11568 13807 13806 1
11569 13809 13808 1
11570 13810 13809 1
11571 13811 13809 1
11572 13812 13809 1
11573 13813 13812 1
11574 13815 13814 1
11575 13816 13815 1
11576 13817 13815 1
11577 13818 13815 1
11578 13819 13818 1
11579 13821 13820 1
11580 13822 13821 1
11581 13823 13821 1
11582 13824 13821 1
11583 13825 13824 1
11584 13827 13826 1
11585 13828 13827 1
11586 13829 13827 1
11587 13830 13827 1
11588 13831 13830 1
11589 13833 13832 1
11590 13834 13833 1
11591 13835 13833 1
11592 13836 13833 1
11593 13837 13836 1
11594 13839 13838 1
11595 13840 13839 1
11596 13841 13839 1
11597 13842 13839 1
11598 13843 13842 1
11599 13845 13844 1
11600 13846 13845 1
11601 13847 13845 1
11602 13848 13845 1
11603 13849 13848 1
11604 13851 13850 1
11605 13852 13851 1
11606 13853 13851 1
11607 13854 13851 1
11608 13855 13854 1
11609 13857 13856 1
11610 13858 13857 1
11611 13859 13857 1
11612 13860 13857 1
11613 13861 13860 1
11614 13863 13862 1
11615 13864 13863 1
11616 13865 13863 1
11617 13866 13863 1
11618 13867 13866 1
11619 13869 13868 1
11620 13870 13869 1
11621 13871 13869 1
11622 13872 13869 1
11623 13873 13872 1
11624 13875 13874 1
11625 13876 13875 1
11626 13877 13875 1
11627 13878 13875 1
11628 13879 13878 1
11629 13881 13880 1
11630 13882 13881 1
11631 13883 13881 1
11632 13884 13881 1
11633 13885 13884 1
11634 13887 13886 1
11635 13888 13887 1
11636 13889 13887 1
11637 13890 13887 1
11638 13891 13890 1
11639 13893 13892 1
11640 13894 13893 1
11641 13895 13893 1
11642 13896 13893 1
11643 13897 13896 1
11644 13899 13898 1
11645 13900 13899 1
11646 13901 13899 1
11647 13902 13899 1
11648 13903 13902 1
11649 13905 13904 1
11650 13906 13905 1
11651 13907 13905 1
11652 13908 13905 1
11653 13909 13908 1
11654 13911 13910 1
11655 13912 13911 1
11656 13913 13911 1
11657 13914 13911 1
11658 13915 13914 1
11659 13917 13916 1
11660 13918 13917 1
11661 13919 13917 1
11662 13920 13917 1
11663 13921 13920 1
11664 13923 13922 1
11665 13924 13923 1
11666 13925 13923 1
11667 13926 13923 1
11668 13927 13926 1
11669 13929 13928 1
11670 13930 13929 1
11671 13931 13929 1
11672 13932 13929 1
11673 13933 13932 1
11674 13935 13934 1
11675 13936 13935 1
11676 13937 13935 1
11677 13938 13935 1
11678 13939 13938 1
11679 13941 13940 1
11680 13942 13941 1
11681 13943 13941 1
11682 13944 13941 1
11683 13945 13944 1
11684 13947 13946 1
11685 13948 13947 1
11686 13949 13947 1
11687 13950 13947 1
11688 13951 13950 1
11689 13953 13952 1
11690 13954 13953 1
11691 13955 13953 1
11692 13956 13953 1
11693 13957 13956 1
11694 13959 13958 1
11695 13960 13959 1
11696 13961 13959 1
11697 13962 13959 1
11698 13963 13962 1
11699 13965 13964 1
11700 13966 13965 1
11701 13967 13965 1
11702 13968 13965 1
11703 13969 13968 1
11704 13971 13970 1
11705 13972 13971 1
11706 13973 13971 1
11707 13974 13971 1
11708 13975 13974 1
11709 13977 13976 1
11710 13978 13977 1
11711 13979 13977 1
11712 13980 13977 1
11713 13981 13980 1
11714 13983 13982 1
11715 13984 13983 1
11716 13985 13983 1
11717 13986 13983 1
11718 13987 13986 1
11719 13989 13988 1
11720 13990 13989 1
11721 13991 13989 1
11722 13992 13989 1
11723 13993 13992 1
11724 13995 13994 1
11725 13996 13995 1
11726 13997 13995 1
11727 13998 13995 1
11728 13999 13998 1
11729 14001 14000 1
11730 14002 14001 1
11731 14003 14001 1
11732 14004 14001 1
11733 14005 14004 1
11734 14007 14006 1
11735 14008 14007 1
11736 14009 14007 1
11737 14010 14007 1
11738 14011 14010 1
11739 14013 14012 1
11740 14014 14013 1
11741 14015 14013 1
11742 14016 14013 1
11743 14017 14016 1
11744 14019 14018 1
11745 14020 14019 1
11746 14021 14019 1
11747 14022 14019 1
11748 14023 14022 1
11749 14025 14024 1
11750 14026 14025 1
11751 14027 14025 1
11752 14028 14025 1
11753 14029 14028 1
11754 14031 14030 1
11755 14032 14031 1
11756 14033 14031 1
11757 14034 14031 1
11758 14035 14034 1
11759 14037 14036 1
11760 14038 14037 1
11761 14039 14037 1
11762 14040 14037 1
11763 14041 14040 1
11764 14043 14042 1
11765 14044 14043 1
11766 14045 14043 1
11767 14046 14043 1
11768 14047 14046 1
11769 14049 14048 1
11770 14050 14049 1
11771 14051 14049 1
11772 14052 14049 1
11773 14053 14052 1
11774 14055 14054 1
11775 14056 14055 1
11776 14057 14055 1
11777 14058 14055 1
11778 14059 14058 1
11779 14061 14060 1
11780 14062 14061 1
11781 14063 14061 1
11782 14064 14061 1
11783 14065 14064 1
11784 14067 14066 1
11785 14068 14067 1
11786 14069 14067 1
11787 14070 14067 1
11788 14071 14070 1
11789 14073 14072 1
11790 14074 14073 1
11791 14075 14073 1
11792 14076 14073 1
11793 14077 14076 1
11794 14079 14078 1
11795 14080 14079 1
11796 14081 14079 1
11797 14082 14079 1
11798 14083 14082 1
11799 14085 14084 1
11800 14086 14085 1
11801 14087 14085 1
11802 14088 14085 1
11803 14089 14088 1
11804 14091 14090 1
11805 14092 14091 1
11806 14093 14091 1
11807 14094 14091 1
11808 14095 14094 1
11809 14097 14096 1
11810 14098 14097 1
11811 14099 14097 1
11812 14100 14097 1
11813 14101 14100 1
11814 14103 14102 1
11815 14104 14103 1
11816 14105 14103 1
11817 14106 14103 1
11818 14107 14106 1
11819 14109 14108 1
11820 14110 14109 1
11821 14111 14109 1
11822 14112 14109 1
11823 14113 14112 1
11824 14115 14114 1
11825 14116 14115 1
11826 14117 14115 1
11827 14118 14115 1
11828 14119 14118 1
11829 14121 14120 1
11830 14122 14121 1
11831 14123 14121 1
11832 14124 14121 1
11833 14125 14124 1
11834 14127 14126 1
11835 14128 14127 1
11836 14129 14127 1
11837 14130 14127 1
11838 14131 14130 1
11839 14133 14132 1
11840 14134 14133 1
11841 14135 14133 1
11842 14136 14133 1
11843 14137 14136 1
11844 14139 14138 1
11845 14140 14139 1
11846 14141 14139 1
11847 14142 14139 1
11848 14143 14142 1
11849 14145 14144 1
11850 14146 14145 1
11851 14147 14145 1
11852 14148 14145 1
11853 14149 14148 1
11854 14151 14150 1
11855 14152 14151 1
11856 14153 14151 1
11857 14154 14151 1
11858 14155 14154 1
11859 14157 14156 1
11860 14158 14157 1
11861 14159 14157 1
11862 14160 14157 1
11863 14161 14160 1
11864 14163 14162 1
11865 14164 14163 1
11866 14165 14163 1
11867 14166 14163 1
11868 14167 14166 1
11869 14169 14168 1
11870 14170 14169 1
11871 14171 14169 1
11872 14172 14169 1
11873 14173 14172 1
11874 14175 14174 1
11875 14176 14175 1
11876 14177 14175 1
11877 14178 14175 1
11878 14179 14178 1
11879 14181 14180 1
11880 14182 14181 1
11881 14183 14181 1
11882 14184 14181 1
11883 14185 14184 1
11884 14187 14186 1
11885 14188 14187 1
11886 14189 14187 1
11887 14190 14187 1
11888 14191 14190 1
11889 14193 14192 1
11890 14194 14193 1
11891 14195 14193 1
11892 14196 14193 1
11893 14197 14196 1
11894 14199 14198 1
11895 14200 14199 1
11896 14201 14199 1
11897 14202 14199 1
11898 14203 14202 1
11899 14205 14204 1
11900 14206 14205 1
11901 14207 14205 1
11902 14208 14205 1
11903 14209 14208 1
11904 14211 14210 1
11905 14212 14211 1
11906 14213 14211 1
11907 14214 14211 1
11908 14215 14214 1
11909 14217 14216 1
11910 14218 14217 1
11911 14219 14217 1
11912 14220 14217 1
11913 14221 14220 1
11914 14223 14222 1
11915 14224 14223 1
11916 14225 14223 1
11917 14226 14223 1
11918 14227 14226 1
11919 14229 14228 1
11920 14230 14229 1
11921 14231 14229 1
11922 14232 14229 1
11923 14233 14232 1
11924 14235 14234 1
11925 14236 14235 1
11926 14237 14235 1
11927 14238 14235 1
11928 14239 14238 1
11929 14241 14240 1
11930 14242 14241 1
11931 14243 14241 1
11932 14244 14241 1
11933 14245 14244 1
11934 14247 14246 1
11935 14248 14247 1
11936 14249 14247 1
11937 14250 14247 1
11938 14251 14250 1
11939 14253 14252 1
11940 14254 14253 1
11941 14255 14253 1
11942 14256 14253 1
11943 14257 14256 1
11944 14259 14258 1
11945 14260 14259 1
11946 14261 14259 1
11947 14262 14259 1
11948 14263 14262 1
11949 14265 14264 1
11950 14266 14265 1
11951 14267 14265 1
11952 14268 14265 1
11953 14269 14268 1
11954 14271 14270 1
11955 14272 14271 1
11956 14273 14271 1
11957 14274 14271 1
11958 14275 14274 1
11959 14277 14276 1
11960 14278 14277 1
11961 14279 14277 1
11962 14280 14277 1
11963 14281 14280 1
11964 14283 14282 1
11965 14284 14283 1
11966 14285 14283 1
11967 14286 14283 1
11968 14287 14286 1
11969 14289 14288 1
11970 14290 14289 1
11971 14291 14289 1
11972 14292 14289 1
11973 14293 14292 1
11974 14295 14294 1
11975 14296 14295 1
11976 14297 14295 1
11977 14298 14295 1
11978 14299 14298 1
11979 14301 14300 1
11980 14302 14301 1
11981 14303 14301 1
11982 14304 14301 1
11983 14305 14304 1
11984 14307 14306 1
11985 14308 14307 1
11986 14309 14307 1
11987 14310 14307 1
11988 14311 14310 1
11989 14313 14312 1
11990 14314 14313 1
11991 14315 14313 1
11992 14316 14313 1
11993 14317 14316 1
11994 14319 14318 1
11995 14320 14319 1
11996 14321 14319 1
11997 14322 14319 1
11998 14323 14322 1
11999 14325 14324 1
12000 14326 14325 1
12001 14327 14325 1
12002 14328 14325 1
12003 14329 14328 1
12004 14331 14330 1
12005 14332 14331 1
12006 14333 14331 1
12007 14334 14331 1
12008 14335 14334 1
12009 14337 14336 1
12010 14338 14337 1
12011 14339 14337 1
12012 14340 14337 1
12013 14341 14340 1
12014 14343 14342 1
12015 14344 14343 1
12016 14345 14343 1
12017 14346 14343 1
12018 14347 14346 1
12019 14349 14348 1
12020 14350 14349 1
12021 14351 14349 1
12022 14352 14349 1
12023 14353 14352 1
12024 14355 14354 1
12025 14356 14355 1
12026 14357 14355 1
12027 14358 14355 1
12028 14359 14358 1
12029 14361 14360 1
12030 14362 14361 1
12031 14363 14361 1
12032 14364 14361 1
12033 14365 14364 1
12034 14367 14366 1
12035 14368 14367 1
12036 14369 14367 1
12037 14370 14367 1
12038 14371 14370 1
12039 14373 14372 1
12040 14374 14373 1
12041 14375 14373 1
12042 14376 14373 1
12043 14377 14376 1
12044 14379 14378 1
12045 14380 14379 1
12046 14381 14379 1
12047 14382 14379 1
12048 14383 14382 1
12049 14385 14384 1
12050 14386 14385 1
12051 14387 14385 1
12052 14388 14385 1
12053 14389 14388 1
12054 14391 14390 1
12055 14392 14391 1
12056 14393 14391 1
12057 14394 14391 1
12058 14395 14394 1
12059 14397 14396 1
12060 14398 14397 1
12061 14399 14397 1
12062 14400 14397 1
12063 14401 14400 1
12064 14403 14402 1
12065 14404 14403 1
12066 14405 14403 1
12067 14406 14403 1
12068 14407 14406 1
12069 14409 14408 1
12070 14410 14409 1
12071 14411 14409 1
12072 14412 14409 1
12073 14413 14412 1
12074 14415 14414 1
12075 14416 14415 1
12076 14417 14415 1
12077 14418 14415 1
12078 14419 14418 1
12079 14421 14420 1
12080 14422 14421 1
12081 14423 14421 1
12082 14424 14421 1
12083 14425 14424 1
12084 14427 14426 1
12085 14428 14427 1
12086 14429 14427 1
12087 14430 14427 1
12088 14431 14430 1
12089 14433 14432 1
12090 14434 14433 1
12091 14435 14433 1
12092 14436 14433 1
12093 14437 14436 1
12094 14439 14438 1
12095 14440 14439 1
12096 14441 14439 1
12097 14442 14439 1
12098 14443 14442 1
12099 14445 14444 1
12100 14446 14445 1
12101 14447 14445 1
12102 14448 14445 1
12103 14449 14448 1
12104 14451 14450 1
12105 14452 14451 1
12106 14453 14451 1
12107 14454 14451 1
12108 14455 14454 1
12109 14457 14456 1
12110 14458 14457 1
12111 14459 14457 1
12112 14460 14457 1
12113 14461 14460 1
12114 14463 14462 1
12115 14464 14463 1
12116 14465 14463 1
12117 14466 14463 1
12118 14467 14466 1
12119 14469 14468 1
12120 14470 14469 1
12121 14471 14469 1
12122 14472 14469 1
12123 14473 14472 1
12124 14475 14474 1
12125 14476 14475 1
12126 14477 14475 1
12127 14478 14475 1
12128 14479 14478 1
12129 14481 14480 1
12130 14482 14481 1
12131 14483 14481 1
12132 14484 14481 1
12133 14485 14484 1
12134 14487 14486 1
12135 14488 14487 1
12136 14489 14487 1
12137 14490 14487 1
12138 14491 14490 1
12139 14493 14492 1
12140 14494 14493 1
12141 14495 14493 1
12142 14496 14493 1
12143 14497 14496 1
12144 14499 14498 1
12145 14500 14499 1
12146 14501 14499 1
12147 14502 14499 1
12148 14503 14502 1
12149 14505 14504 1
12150 14506 14505 1
12151 14507 14505 1
12152 14508 14505 1
12153 14509 14508 1
12154 14511 14510 1
12155 14512 14511 1
12156 14513 14511 1
12157 14514 14511 1
12158 14515 14514 1
12159 14517 14516 1
12160 14518 14517 1
12161 14519 14517 1
12162 14520 14517 1
12163 14521 14520 1
12164 14523 14522 1
12165 14524 14523 1
12166 14525 14523 1
12167 14526 14523 1
12168 14527 14526 1
12169 14529 14528 1
12170 14530 14529 1
12171 14531 14529 1
12172 14532 14529 1
12173 14533 14532 1
12174 14535 14534 1
12175 14536 14535 1
12176 14537 14535 1
12177 14538 14535 1
12178 14539 14538 1
12179 14541 14540 1
12180 14542 14541 1
12181 14543 14541 1
12182 14544 14541 1
12183 14545 14544 1
12184 14547 14546 1
12185 14548 14547 1
12186 14549 14547 1
12187 14550 14547 1
12188 14551 14550 1
12189 14553 14552 1
12190 14554 14553 1
12191 14555 14553 1
12192 14556 14553 1
12193 14557 14556 1
12194 14559 14558 1
12195 14560 14559 1
12196 14561 14559 1
12197 14562 14559 1
12198 14563 14562 1
12199 14565 14564 1
12200 14566 14565 1
12201 14567 14565 1
12202 14568 14565 1
12203 14569 14568 1
12204 14571 14570 1
12205 14572 14571 1
12206 14573 14571 1
12207 14574 14571 1
12208 14575 14574 1
12209 14577 14576 1
12210 14578 14577 1
12211 14579 14577 1
12212 14580 14577 1
12213 14581 14580 1
12214 14583 14582 1
12215 14584 14583 1
12216 14585 14583 1
12217 14586 14583 1
12218 14587 14586 1
12219 14589 14588 1
12220 14590 14589 1
12221 14591 14589 1
12222 14592 14589 1
12223 14593 14592 1
12224 14595 14594 1
12225 14596 14595 1
12226 14597 14595 1
12227 14598 14595 1
12228 14599 14598 1
12229 14601 14600 1
12230 14602 14601 1
12231 14603 14601 1
12232 14604 14601 1
12233 14605 14604 1
12234 14607 14606 1
12235 14608 14607 1
12236 14609 14607 1
12237 14610 14607 1
12238 14611 14610 1
12239 14613 14612 1
12240 14614 14613 1
12241 14615 14613 1
12242 14616 14613 1
12243 14617 14616 1
12244 14619 14618 1
12245 14620 14619 1
12246 14621 14619 1
12247 14622 14619 1
12248 14623 14622 1
12249 14625 14624 1
12250 14626 14625 1
12251 14627 14625 1
12252 14628 14625 1
12253 14629 14628 1
12254 14631 14630 1
12255 14632 14631 1
12256 14633 14631 1
12257 14634 14631 1
12258 14635 14634 1
12259 14637 14636 1
12260 14638 14637 1
12261 14639 14637 1
12262 14640 14637 1
12263 14641 14640 1
12264 14643 14642 1
12265 14644 14643 1
12266 14645 14643 1
12267 14646 14643 1
12268 14647 14646 1
12269 14649 14648 1
12270 14650 14649 1
12271 14651 14649 1
12272 14652 14649 1
12273 14653 14652 1
12274 14655 14654 1
12275 14656 14655 1
12276 14657 14655 1
12277 14658 14655 1
12278 14659 14658 1
12279 14661 14660 1
12280 14662 14661 1
12281 14663 14661 1
12282 14664 14661 1
12283 14665 14664 1
12284 14667 14666 1
12285 14668 14667 1
12286 14669 14667 1
12287 14670 14667 1
12288 14671 14670 1
12289 14673 14672 1
12290 14674 14673 1
12291 14675 14673 1
12292 14676 14673 1
12293 14677 14676 1
12294 14679 14678 1
12295 14680 14679 1
12296 14681 14679 1
12297 14682 14679 1
12298 14683 14682 1
12299 14685 14684 1
12300 14686 14685 1
12301 14687 14685 1
12302 14688 14685 1
12303 14689 14688 1
12304 14691 14690 1
12305 14692 14691 1
12306 14693 14691 1
12307 14694 14691 1
12308 14695 14694 1
12309 14697 14696 1
12310 14698 14697 1
12311 14699 14697 1
12312 14700 14697 1
12313 14701 14700 1
12314 14703 14702 1
12315 14704 14703 1
12316 14705 14703 1
12317 14706 14703 1
12318 14707 14706 1
12319 14709 14708 1
12320 14710 14709 1
12321 14711 14709 1
12322 14712 14709 1
12323 14713 14712 1
12324 14715 14714 1
12325 14716 14715 1
12326 14717 14715 1
12327 14718 14715 1
12328 14719 14718 1
12329 14721 14720 1
12330 14722 14721 1
12331 14723 14721 1
12332 14724 14721 1
12333 14725 14724 1
12334 14727 14726 1
12335 14728 14727 1
12336 14729 14727 1
12337 14730 14727 1
12338 14731 14730 1
12339 14733 14732 1
12340 14734 14733 1
12341 14735 14733 1
12342 14736 14733 1
12343 14737 14736 1
12344 14739 14738 1
12345 14740 14739 1
12346 14741 14739 1
12347 14742 14739 1
12348 14743 14742 1
12349 14745 14744 1
12350 14746 14745 1
12351 14747 14745 1
12352 14748 14745 1
12353 14749 14748 1
12354 14751 14750 1
12355 14752 14751 1
12356 14753 14751 1
12357 14754 14751 1
12358 14755 14754 1
12359 14757 14756 1
12360 14758 14757 1
12361 14759 14757 1
12362 14760 14757 1
12363 14761 14760 1
12364 14763 14762 1
12365 14764 14763 1
12366 14765 14763 1
12367 14766 14763 1
12368 14767 14766 1
12369 14769 14768 1
12370 14770 14769 1
12371 14771 14769 1
12372 14772 14769 1
12373 14773 14772 1
12374 14775 14774 1
12375 14776 14775 1
12376 14777 14775 1
12377 14778 14775 1
12378 14779 14778 1
12379 14781 14780 1
12380 14782 14781 1
12381 14783 14781 1
12382 14784 14781 1
12383 14785 14784 1
12384 14787 14786 1
12385 14788 14787 1
12386 14789 14787 1
12387 14790 14787 1
12388 14791 14790 1
12389 14793 14792 1
12390 14794 14793 1
12391 14795 14793 1
12392 14796 14793 1
12393 14797 14796 1
12394 14799 14798 1
12395 14800 14799 1
12396 14801 14799 1
12397 14802 14799 1
12398 14803 14802 1
12399 14805 14804 1
12400 14806 14805 1
12401 14807 14805 1
12402 14808 14805 1
12403 14809 14808 1
12404 14811 14810 1
12405 14812 14811 1
12406 14813 14811 1
12407 14814 14811 1
12408 14815 14814 1
12409 14817 14816 1
12410 14818 14817 1
12411 14819 14817 1
12412 14820 14817 1
12413 14821 14820 1
12414 14823 14822 1
12415 14824 14823 1
12416 14825 14823 1
12417 14826 14823 1
12418 14827 14826 1
12419 14829 14828 1
12420 14830 14829 1
12421 14831 14829 1
12422 14832 14829 1
12423 14833 14832 1
12424 14835 14834 1
12425 14836 14835 1
12426 14837 14835 1
12427 14838 14835 1
12428 14839 14838 1
12429 14841 14840 1
12430 14842 14841 1
12431 14843 14841 1
12432 14844 14841 1
12433 14845 14844 1
12434 14847 14846 1
12435 14848 14847 1
12436 14849 14847 1
12437 14850 14847 1
12438 14851 14850 1
12439 14853 14852 1
12440 14854 14853 1
12441 14855 14853 1
12442 14856 14853 1
12443 14857 14856 1
12444 14859 14858 1
12445 14860 14859 1
12446 14861 14859 1
12447 14862 14859 1
12448 14863 14862 1
12449 14865 14864 1
12450 14866 14865 1
12451 14867 14865 1
12452 14868 14865 1
12453 14869 14868 1
12454 14871 14870 1
12455 14872 14871 1
12456 14873 14871 1
12457 14874 14871 1
12458 14875 14874 1
12459 14877 14876 1
12460 14878 14877 1
12461 14879 14877 1
12462 14880 14877 1
12463 14881 14880 1
12464 14883 14882 1
12465 14884 14883 1
12466 14885 14883 1
12467 14886 14883 1
12468 14887 14886 1
12469 14889 14888 1
12470 14890 14889 1
12471 14891 14889 1
12472 14892 14889 1
12473 14893 14892 1
12474 14895 14894 1
12475 14896 14895 1
12476 14897 14895 1
12477 14898 14895 1
12478 14899 14898 1
12479 14901 14900 1
12480 14902 14901 1
12481 14903 14901 1
12482 14904 14901 1
12483 14905 14904 1
12484 14907 14906 1
12485 14908 14907 1
12486 14909 14907 1
12487 14910 14907 1
12488 14911 14910 1
12489 14913 14912 1
12490 14914 14913 1
12491 14915 14913 1
12492 14916 14913 1
12493 14917 14916 1
12494 14919 14918 1
12495 14920 14919 1
12496 14921 14919 1
12497 14922 14919 1
12498 14923 14922 1
12499 14925 14924 1
12500 14926 14925 1
12501 14927 14925 1
12502 14928 14925 1
12503 14929 14928 1
12504 14931 14930 1
12505 14932 14931 1
12506 14933 14931 1
12507 14934 14931 1
12508 14935 14934 1
12509 14937 14936 1
12510 14938 14937 1
12511 14939 14937 1
12512 14940 14937 1
12513 14941 14940 1
12514 14943 14942 1
12515 14944 14943 1
12516 14945 14943 1
12517 14946 14943 1
12518 14947 14946 1
12519 14949 14948 1
12520 14950 14949 1
12521 14951 14949 1
12522 14952 14949 1
12523 14953 14952 1
12524 14955 14954 1
12525 14956 14955 1
12526 14957 14955 1
12527 14958 14955 1
12528 14959 14958 1
12529 14961 14960 1
12530 14962 14961 1
12531 14963 14961 1
12532 14964 14961 1
12533 14965 14964 1
12534 14967 14966 1
12535 14968 14967 1
12536 14969 14967 1
12537 14970 14967 1
12538 14971 14970 1
12539 14973 14972 1
12540 14974 14973 1
12541 14975 14973 1
12542 14976 14973 1
12543 14977 14976 1
12544 14979 14978 1
12545 14980 14979 1
12546 14981 14979 1
12547 14982 14979 1
12548 14983 14982 1
12549 14985 14984 1
12550 14986 14985 1
12551 14987 14985 1
12552 14988 14985 1
12553 14989 14988 1
12554 14991 14990 1
12555 14992 14991 1
12556 14993 14991 1
12557 14994 14991 1
12558 14995 14994 1
12559 14997 14996 1
12560 14998 14997 1
12561 14999 14997 1
12562 15000 14997 1
12563 15001 15000 1
12564 15003 15002 1
12565 15004 15003 1
12566 15005 15003 1
12567 15006 15003 1
12568 15007 15006 1
12569 15009 15008 1
12570 15010 15009 1
12571 15011 15009 1
12572 15012 15009 1
12573 15013 15012 1
12574 15015 15014 1
12575 15016 15015 1
12576 15017 15015 1
12577 15018 15015 1
12578 15019 15018 1
12579 15021 15020 1
12580 15022 15021 1
12581 15023 15021 1
12582 15024 15021 1
12583 15025 15024 1
12584 15027 15026 1
12585 15028 15027 1
12586 15029 15027 1
12587 15030 15027 1
12588 15031 15030 1
12589 15033 15032 1
12590 15034 15033 1
12591 15035 15033 1
12592 15036 15033 1
12593 15037 15036 1
12594 15039 15038 1
12595 15040 15039 1
12596 15041 15039 1
12597 15042 15039 1
12598 15043 15042 1
12599 15045 15044 1
12600 15046 15045 1
12601 15047 15045 1
12602 15048 15045 1
12603 15049 15048 1
12604 15051 15050 1
12605 15052 15051 1
12606 15053 15051 1
12607 15054 15051 1
12608 15055 15054 1
12609 15057 15056 1
12610 15058 15057 1
12611 15059 15057 1
12612 15060 15057 1
12613 15061 15060 1
12614 15063 15062 1
12615 15064 15063 1
12616 15065 15063 1
12617 15066 15063 1
12618 15067 15066 1
12619 15069 15068 1
12620 15070 15069 1
12621 15071 15069 1
12622 15072 15069 1
12623 15073 15072 1
12624 15075 15074 1
12625 15076 15075 1
12626 15077 15075 1
12627 15078 15075 1
12628 15079 15078 1
12629 15081 15080 1
12630 15082 15081 1
12631 15083 15081 1
12632 15084 15081 1
12633 15085 15084 1
12634 15087 15086 1
12635 15088 15087 1
12636 15089 15087 1
12637 15090 15087 1
12638 15091 15090 1
12639 15093 15092 1
12640 15094 15093 1
12641 15095 15093 1
12642 15096 15093 1
12643 15097 15096 1
12644 15099 15098 1
12645 15100 15099 1
12646 15101 15099 1
12647 15102 15099 1
12648 15103 15102 1
12649 15105 15104 1
12650 15106 15105 1
12651 15107 15105 1
12652 15108 15105 1
12653 15109 15108 1
12654 15111 15110 1
12655 15112 15111 1
12656 15113 15111 1
12657 15114 15111 1
12658 15115 15114 1
12659 15117 15116 1
12660 15118 15117 1
12661 15119 15117 1
12662 15120 15117 1
12663 15121 15120 1
12664 15123 15122 1
12665 15124 15123 1
12666 15125 15123 1
12667 15126 15123 1
12668 15127 15126 1
12669 15129 15128 1
12670 15130 15129 1
12671 15131 15129 1
12672 15132 15129 1
12673 15133 15132 1
12674 15135 15134 1
12675 15136 15135 1
12676 15137 15135 1
12677 15138 15135 1
12678 15139 15138 1
12679 15141 15140 1
12680 15142 15141 1
12681 15143 15141 1
12682 15144 15141 1
12683 15145 15144 1
12684 15147 15146 1
12685 15148 15147 1
12686 15149 15147 1
12687 15150 15147 1
12688 15151 15150 1
12689 15153 15152 1
12690 15154 15153 1
12691 15155 15153 1
12692 15156 15153 1
12693 15157 15156 1
12694 15159 15158 1
12695 15160 15159 1
12696 15161 15159 1
12697 15162 15159 1
12698 15163 15162 1
12699 15165 15164 1
12700 15166 15165 1
12701 15167 15165 1
12702 15168 15165 1
12703 15169 15168 1
12704 15171 15170 1
12705 15172 15171 1
12706 15173 15171 1
12707 15174 15171 1
12708 15175 15174 1
12709 15177 15176 1
12710 15178 15177 1
12711 15179 15177 1
12712 15180 15177 1
12713 15181 15180 1
12714 15183 15182 1
12715 15184 15183 1
12716 15185 15183 1
12717 15186 15183 1
12718 15187 15186 1
12719 15189 15188 1
12720 15190 15189 1
12721 15191 15189 1
12722 15192 15189 1
12723 15193 15192 1
12724 15195 15194 1
12725 15196 15195 1
12726 15197 15195 1
12727 15198 15195 1
12728 15199 15198 1
12729 15201 15200 1
12730 15202 15201 1
12731 15203 15201 1
12732 15204 15201 1
12733 15205 15204 1
12734 15207 15206 1
12735 15208 15207 1
12736 15209 15207 1
12737 15210 15207 1
12738 15211 15210 1
12739 15213 15212 1
12740 15214 15213 1
12741 15215 15213 1
12742 15216 15213 1
12743 15217 15216 1
12744 15219 15218 1
12745 15220 15219 1
12746 15221 15219 1
12747 15222 15219 1
12748 15223 15222 1
12749 15225 15224 1
12750 15226 15225 1
12751 15227 15225 1
12752 15228 15225 1
12753 15229 15228 1
12754 15231 15230 1
12755 15232 15231 1
12756 15233 15231 1
12757 15234 15231 1
12758 15235 15234 1
12759 15237 15236 1
12760 15238 15237 1
12761 15239 15237 1
12762 15240 15237 1
12763 15241 15240 1
12764 15243 15242 1
12765 15244 15243 1
12766 15245 15243 1
12767 15246 15243 1
12768 15247 15246 1
12769 15249 15248 1
12770 15250 15249 1
12771 15251 15249 1
12772 15252 15249 1
12773 15253 15252 1
12774 15255 15254 1
12775 15256 15255 1
12776 15257 15255 1
12777 15258 15255 1
12778 15259 15258 1
12779 15261 15260 1
12780 15262 15261 1
12781 15263 15261 1
12782 15264 15261 1
12783 15265 15264 1
12784 15267 15266 1
12785 15268 15267 1
12786 15269 15267 1
12787 15270 15267 1
12788 15271 15270 1
12789 15273 15272 1
12790 15274 15273 1
12791 15275 15273 1
12792 15276 15273 1
12793 15277 15276 1
12794 15279 15278 1
12795 15280 15279 1
12796 15281 15279 1
12797 15282 15279 1
12798 15283 15282 1
12799 15285 15284 1
12800 15286 15285 1
12801 15287 15285 1
12802 15288 15285 1
12803 15289 15288 1
12804 15291 15290 1
12805 15292 15291 1
12806 15293 15291 1
12807 15294 15291 1
12808 15295 15294 1
12809 15297 15296 1
12810 15298 15297 1
12811 15299 15297 1
12812 15300 15297 1
12813 15301 15300 1
12814 15303 15302 1
12815 15304 15303 1
12816 15305 15303 1
12817 15306 15303 1
12818 15307 15306 1
12819 15309 15308 1
12820 15310 15309 1
12821 15311 15309 1
12822 15312 15309 1
12823 15313 15312 1
12824 15315 15314 1
12825 15316 15315 1
12826 15317 15315 1
12827 15318 15315 1
12828 15319 15318 1
12829 15321 15320 1
12830 15322 15321 1
12831 15323 15321 1
12832 15324 15321 1
12833 15325 15324 1
12834 15327 15326 1
12835 15328 15327 1
12836 15329 15327 1
12837 15330 15327 1
12838 15331 15330 1
12839 15333 15332 1
12840 15334 15333 1
12841 15335 15333 1
12842 15336 15333 1
12843 15337 15336 1
12844 15339 15338 1
12845 15340 15339 1
12846 15341 15339 1
12847 15342 15339 1
12848 15343 15342 1
12849 15345 15344 1
12850 15346 15345 1
12851 15347 15345 1
12852 15348 15345 1
12853 15349 15348 1
12854 15351 15350 1
12855 15352 15351 1
12856 15353 15351 1
12857 15354 15351 1
12858 15355 15354 1
12859 15357 15356 1
12860 15358 15357 1
12861 15359 15357 1
12862 15360 15357 1
12863 15361 15360 1
12864 15363 15362 1
12865 15364 15363 1
12866 15365 15363 1
12867 15366 15363 1
12868 15367 15366 1
12869 15369 15368 1
12870 15370 15369 1
12871 15371 15369 1
12872 15372 15369 1
12873 15373 15372 1
12874 15375 15374 1
12875 15376 15375 1
12876 15377 15375 1
12877 15378 15375 1
12878 15379 15378 1
12879 15381 15380 1
12880 15382 15381 1
12881 15383 15381 1
12882 15384 15381 1
12883 15385 15384 1
12884 15387 15386 1
12885 15388 15387 1
12886 15389 15387 1
12887 15390 15387 1
12888 15391 15390 1
12889 15393 15392 1
12890 15394 15393 1
12891 15395 15393 1
12892 15396 15393 1
12893 15397 15396 1
12894 15399 15398 1
12895 15400 15399 1
12896 15401 15399 1
12897 15402 15399 1
12898 15403 15402 1
12899 15405 15404 1
12900 15406 15405 1
12901 15407 15405 1
12902 15408 15405 1
12903 15409 15408 1
12904 15411 15410 1
12905 15412 15411 1
12906 15413 15411 1
12907 15414 15411 1
12908 15415 15414 1
12909 15417 15416 1
12910 15418 15417 1
12911 15419 15417 1
12912 15420 15417 1
12913 15421 15420 1
12914 15423 15422 1
12915 15424 15423 1
12916 15425 15423 1
12917 15426 15423 1
12918 15427 15426 1
12919 15429 15428 1
12920 15430 15429 1
12921 15431 15429 1
12922 15432 15429 1
12923 15433 15432 1
12924 15435 15434 1
12925 15436 15435 1
12926 15437 15435 1
12927 15438 15435 1
12928 15439 15438 1
12929 15441 15440 1
12930 15442 15441 1
12931 15443 15441 1
12932 15444 15441 1
12933 15445 15444 1
12934 15447 15446 1
12935 15448 15447 1
12936 15449 15447 1
12937 15450 15447 1
12938 15451 15450 1
12939 15453 15452 1
12940 15454 15453 1
12941 15455 15453 1
12942 15456 15453 1
12943 15457 15456 1
12944 15459 15458 1
12945 15460 15459 1
12946 15461 15459 1
12947 15462 15459 1
12948 15463 15462 1
12949 15465 15464 1
12950 15466 15465 1
12951 15467 15465 1
12952 15468 15465 1
12953 15469 15468 1
12954 15471 15470 1
12955 15472 15471 1
12956 15473 15471 1
12957 15474 15471 1
12958 15475 15474 1
12959 15477 15476 1
12960 15478 15477 1
12961 15479 15477 1
12962 15480 15477 1
12963 15481 15480 1
12964 15483 15482 1
12965 15484 15483 1
12966 15485 15483 1
12967 15486 15483 1
12968 15487 15486 1
12969 15489 15488 1
12970 15490 15489 1
12971 15491 15489 1
12972 15492 15489 1
12973 15493 15492 1
12974 15495 15494 1
12975 15496 15495 1
12976 15497 15495 1
12977 15498 15495 1
12978 15499 15498 1
12979 15501 15500 1
12980 15502 15501 1
12981 15503 15501 1
12982 15504 15501 1
12983 15505 15504 1
12984 15507 15506 1
12985 15508 15507 1
12986 15509 15507 1
12987 15510 15507 1
12988 15511 15510 1
12989 15513 15512 1
12990 15514 15513 1
12991 15515 15513 1
12992 15516 15513 1
12993 15517 15516 1
12994 15519 15518 1
12995 15520 15519 1
12996 15521 15519 1
12997 15522 15519 1
12998 15523 15522 1
12999 15525 15524 1
13000 15526 15525 1
13001 15527 15525 1
13002 15528 15525 1
13003 15529 15528 1
13004 15531 15530 1
13005 15532 15531 1
13006 15533 15531 1
13007 15534 15531 1
13008 15535 15534 1
13009 15537 15536 1
13010 15538 15537 1
13011 15539 15537 1
13012 15540 15537 1
13013 15541 15540 1
13014 15543 15542 1
13015 15544 15543 1
13016 15545 15543 1
13017 15546 15543 1
13018 15547 15546 1
13019 15549 15548 1
13020 15550 15549 1
13021 15551 15549 1
13022 15552 15549 1
13023 15553 15552 1
13024 15555 15554 1
13025 15556 15555 1
13026 15557 15555 1
13027 15558 15555 1
13028 15559 15558 1
13029 15561 15560 1
13030 15562 15561 1
13031 15563 15561 1
13032 15564 15561 1
13033 15565 15564 1
13034 15567 15566 1
13035 15568 15567 1
13036 15569 15567 1
13037 15570 15567 1
13038 15571 15570 1
13039 15573 15572 1
13040 15574 15573 1
13041 15575 15573 1
13042 15576 15573 1
13043 15577 15576 1
13044 15579 15578 1
13045 15580 15579 1
13046 15581 15579 1
13047 15582 15579 1
13048 15583 15582 1
13049 15585 15584 1
13050 15586 15585 1
13051 15587 15585 1
13052 15588 15585 1
13053 15589 15588 1
13054 15591 15590 1
13055 15592 15591 1
13056 15593 15591 1
13057 15594 15591 1
13058 15595 15594 1
13059 15597 15596 1
13060 15598 15597 1
13061 15599 15597 1
13062 15600 15597 1
13063 15601 15600 1
13064 15603 15602 1
13065 15604 15603 1
13066 15605 15603 1
13067 15606 15603 1
13068 15607 15606 1
13069 15609 15608 1
13070 15610 15609 1
13071 15611 15609 1
13072 15612 15609 1
13073 15613 15612 1
13074 15615 15614 1
13075 15616 15615 1
13076 15617 15615 1
13077 15618 15615 1
13078 15619 15618 1
13079 15621 15620 1
13080 15622 15621 1
13081 15623 15621 1
13082 15624 15621 1
13083 15625 15624 1
13084 15627 15626 1
13085 15628 15627 1
13086 15629 15627 1
13087 15630 15627 1
13088 15631 15630 1
13089 15633 15632 1
13090 15634 15633 1
13091 15635 15633 1
13092 15636 15633 1
13093 15637 15636 1
13094 15639 15638 1
13095 15640 15639 1
13096 15641 15639 1
13097 15642 15639 1
13098 15643 15642 1
13099 15645 15644 1
13100 15646 15645 1
13101 15647 15645 1
13102 15648 15645 1
13103 15649 15648 1
13104 15651 15650 1
13105 15652 15651 1
13106 15653 15651 1
13107 15654 15651 1
13108 15655 15654 1
13109 15657 15656 1
13110 15658 15657 1
13111 15659 15657 1
13112 15660 15657 1
13113 15661 15660 1
13114 15663 15662 1
13115 15664 15663 1
13116 15665 15663 1
13117 15666 15663 1
13118 15667 15666 1
13119 15669 15668 1
13120 15670 15669 1
13121 15671 15669 1
13122 15672 15669 1
13123 15673 15672 1
13124 15675 15674 1
13125 15676 15675 1
13126 15677 15675 1
13127 15678 15675 1
13128 15679 15678 1
13129 15681 15680 1
13130 15682 15681 1
13131 15683 15681 1
13132 15684 15681 1
13133 15685 15684 1
13134 15687 15686 1
13135 15688 15687 1
13136 15689 15687 1
13137 15690 15687 1
13138 15691 15690 1
13139 15693 15692 1
13140 15694 15693 1
13141 15695 15693 1
13142 15696 15693 1
13143 15697 15696 1
13144 15699 15698 1
13145 15700 15699 1
13146 15701 15699 1
13147 15702 15699 1
13148 15703 15702 1
13149 15705 15704 1
13150 15706 15705 1
13151 15707 15705 1
13152 15708 15705 1
13153 15709 15708 1
13154 15711 15710 1
13155 15712 15711 1
13156 15713 15711 1
13157 15714 15711 1
13158 15715 15714 1
13159 15717 15716 1
13160 15718 15717 1
13161 15719 15717 1
13162 15720 15717 1
13163 15721 15720 1
13164 15723 15722 1
13165 15724 15723 1
13166 15725 15723 1
13167 15726 15723 1
13168 15727 15726 1
13169 15729 15728 1
13170 15730 15729 1
13171 15731 15729 1
13172 15732 15729 1
13173 15733 15732 1
13174 15735 15734 1
13175 15736 15735 1
13176 15737 15735 1
13177 15738 15735 1
13178 15739 15738 1
13179 15741 15740 1
13180 15742 15741 1
13181 15743 15741 1
13182 15744 15741 1
13183 15745 15744 1
13184 15747 15746 1
13185 15748 15747 1
13186 15749 15747 1
13187 15750 15747 1
13188 15751 15750 1
13189 15753 15752 1
13190 15754 15753 1
13191 15755 15753 1
13192 15756 15753 1
13193 15757 15756 1
13194 15759 15758 1
13195 15760 15759 1
13196 15761 15759 1
13197 15762 15759 1
13198 15763 15762 1
13199 15765 15764 1
13200 15766 15765 1
13201 15767 15765 1
13202 15768 15765 1
13203 15769 15768 1
13204 15771 15770 1
13205 15772 15771 1
13206 15773 15771 1
13207 15774 15771 1
13208 15775 15774 1
13209 15777 15776 1
13210 15778 15777 1
13211 15779 15777 1
13212 15780 15777 1
13213 15781 15780 1
13214 15783 15782 1
13215 15784 15783 1
13216 15785 15783 1
13217 15786 15783 1
13218 15787 15786 1
13219 15789 15788 1
13220 15790 15789 1
13221 15791 15789 1
13222 15792 15789 1
13223 15793 15792 1
13224 15795 15794 1
13225 15796 15795 1
13226 15797 15795 1
13227 15798 15795 1
13228 15799 15798 1
13229 15801 15800 1
13230 15802 15801 1
13231 15803 15801 1
13232 15804 15801 1
13233 15805 15804 1
13234 15807 15806 1
13235 15808 15807 1
13236 15809 15807 1
13237 15810 15807 1
13238 15811 15810 1
13239 15813 15812 1
13240 15814 15813 1
13241 15815 15813 1
13242 15816 15813 1
13243 15817 15816 1
13244 15819 15818 1
13245 15820 15819 1
13246 15821 15819 1
13247 15822 15819 1
13248 15823 15822 1
13249 15825 15824 1
13250 15826 15825 1
13251 15827 15825 1
13252 15828 15825 1
13253 15829 15828 1
13254 15831 15830 1
13255 15832 15831 1
13256 15833 15831 1
13257 15834 15831 1
13258 15835 15834 1
13259 15837 15836 1
13260 15838 15837 1
13261 15839 15837 1
13262 15840 15837 1
13263 15841 15840 1
13264 15843 15842 1
13265 15844 15843 1
13266 15845 15843 1
13267 15846 15843 1
13268 15847 15846 1
13269 15849 15848 1
13270 15850 15849 1
13271 15851 15849 1
13272 15852 15849 1
13273 15853 15852 1
13274 15855 15854 1
13275 15856 15855 1
13276 15857 15855 1
13277 15858 15855 1
13278 15859 15858 1
13279 15861 15860 1
13280 15862 15861 1
13281 15863 15861 1
13282 15864 15861 1
13283 15865 15864 1
13284 15867 15866 1
13285 15868 15867 1
13286 15869 15867 1
13287 15870 15867 1
13288 15871 15870 1
13289 15873 15872 1
13290 15874 15873 1
13291 15875 15873 1
13292 15876 15873 1
13293 15877 15876 1
13294 15879 15878 1
13295 15880 15879 1
13296 15881 15879 1
13297 15882 15879 1
13298 15883 15882 1
13299 15885 15884 1
13300 15886 15885 1
13301 15887 15885 1
13302 15888 15885 1
13303 15889 15888 1
13304 15891 15890 1
13305 15892 15891 1
13306 15893 15891 1
13307 15894 15891 1
13308 15895 15894 1
13309 15897 15896 1
13310 15898 15897 1
13311 15899 15897 1
13312 15900 15897 1
13313 15901 15900 1
13314 15903 15902 1
13315 15904 15903 1
13316 15905 15903 1
13317 15906 15903 1
13318 15907 15906 1
13319 15909 15908 1
13320 15910 15909 1
13321 15911 15909 1
13322 15912 15909 1
13323 15913 15912 1
13324 15915 15914 1
13325 15916 15915 1
13326 15917 15915 1
13327 15918 15915 1
13328 15919 15918 1
13329 15921 15920 1
13330 15922 15921 1
13331 15923 15921 1
13332 15924 15921 1
13333 15925 15924 1
13334 15927 15926 1
13335 15928 15927 1
13336 15929 15927 1
13337 15930 15927 1
13338 15931 15930 1
13339 15933 15932 1
13340 15934 15933 1
13341 15935 15933 1
13342 15936 15933 1
13343 15937 15936 1
13344 15939 15938 1
13345 15940 15939 1
13346 15941 15939 1
13347 15942 15939 1
13348 15943 15942 1
13349 15945 15944 1
13350 15946 15945 1
13351 15947 15945 1
13352 15948 15945 1
13353 15949 15948 1
13354 15951 15950 1
13355 15952 15951 1
13356 15953 15951 1
13357 15954 15951 1
13358 15955 15954 1
13359 15957 15956 1
13360 15958 15957 1
13361 15959 15957 1
13362 15960 15957 1
13363 15961 15960 1
13364 15963 15962 1
13365 15964 15963 1
13366 15965 15963 1
13367 15966 15963 1
13368 15967 15966 1
13369 15969 15968 1
13370 15970 15969 1
13371 15971 15969 1
13372 15972 15969 1
13373 15973 15972 1
13374 15975 15974 1
13375 15976 15975 1
13376 15977 15975 1
13377 15978 15975 1
13378 15979 15978 1
13379 15981 15980 1
13380 15982 15981 1
13381 15983 15981 1
13382 15984 15981 1
13383 15985 15984 1
13384 15987 15986 1
13385 15988 15987 1
13386 15989 15987 1
13387 15990 15987 1
13388 15991 15990 1
13389 15993 15992 1
13390 15994 15993 1
13391 15995 15993 1
13392 15996 15993 1
13393 15997 15996 1
13394 15999 15998 1
13395 16000 15999 1
13396 16001 15999 1
13397 16002 15999 1
13398 16003 16002 1
13399 16005 16004 1
13400 16006 16005 1
13401 16007 16005 1
13402 16008 16005 1
13403 16009 16008 1
13404 16011 16010 1
13405 16012 16011 1
13406 16013 16011 1
13407 16014 16011 1
13408 16015 16014 1
13409 16017 16016 1
13410 16018 16017 1
13411 16019 16017 1
13412 16020 16017 1
13413 16021 16020 1
13414 16023 16022 1
13415 16024 16023 1
13416 16025 16023 1
13417 16026 16023 1
13418 16027 16026 1
13419 16029 16028 1
13420 16030 16029 1
13421 16031 16029 1
13422 16032 16029 1
13423 16033 16032 1
13424 16035 16034 1
13425 16036 16035 1
13426 16037 16035 1
13427 16038 16035 1
13428 16039 16038 1
13429 16041 16040 1
13430 16042 16041 1
13431 16043 16041 1
13432 16044 16041 1
13433 16045 16044 1
13434 16047 16046 1
13435 16048 16047 1
13436 16049 16047 1
13437 16050 16047 1
13438 16051 16050 1
13439 16053 16052 1
13440 16054 16053 1
13441 16055 16053 1
13442 16056 16053 1
13443 16057 16056 1
13444 16059 16058 1
13445 16060 16059 1
13446 16061 16059 1
13447 16062 16059 1
13448 16063 16062 1
13449 16065 16064 1
13450 16066 16065 1
13451 16067 16065 1
13452 16068 16065 1
13453 16069 16068 1
13454 16071 16070 1
13455 16072 16071 1
13456 16073 16071 1
13457 16074 16071 1
13458 16075 16074 1
13459 16077 16076 1
13460 16078 16077 1
13461 16079 16077 1
13462 16080 16077 1
13463 16081 16080 1
13464 16083 16082 1
13465 16084 16083 1
13466 16085 16083 1
13467 16086 16083 1
13468 16087 16086 1
13469 16089 16088 1
13470 16090 16089 1
13471 16091 16089 1
13472 16092 16089 1
13473 16093 16092 1
13474 16095 16094 1
13475 16096 16095 1
13476 16097 16095 1
13477 16098 16095 1
13478 16099 16098 1
13479 16101 16100 1
13480 16102 16101 1
13481 16103 16101 1
13482 16104 16101 1
13483 16105 16104 1
13484 16107 16106 1
13485 16108 16107 1
13486 16109 16107 1
13487 16110 16107 1
13488 16111 16110 1
13489 16113 16112 1
13490 16114 16113 1
13491 16115 16113 1
13492 16116 16113 1
13493 16117 16116 1
13494 16119 16118 1
13495 16120 16119 1
13496 16121 16119 1
13497 16122 16119 1
13498 16123 16122 1
13499 16125 16124 1
13500 16126 16125 1
13501 16127 16125 1
13502 16128 16125 1
13503 16129 16128 1
13504 16131 16130 1
13505 16132 16131 1
13506 16133 16131 1
13507 16134 16131 1
13508 16135 16134 1
13509 16137 16136 1
13510 16138 16137 1
13511 16139 16137 1
13512 16140 16137 1
13513 16141 16140 1
13514 16143 16142 1
13515 16144 16143 1
13516 16145 16143 1
13517 16146 16143 1
13518 16147 16146 1
13519 16149 16148 1
13520 16150 16149 1
13521 16151 16149 1
13522 16152 16149 1
13523 16153 16152 1
13524 16155 16154 1
13525 16156 16155 1
13526 16157 16155 1
13527 16158 16155 1
13528 16159 16158 1
13529 16161 16160 1
13530 16162 16161 1
13531 16163 16161 1
13532 16164 16161 1
13533 16165 16164 1
13534 16167 16166 1
13535 16168 16167 1
13536 16169 16167 1
13537 16170 16167 1
13538 16171 16170 1
13539 16173 16172 1
13540 16174 16173 1
13541 16175 16173 1
13542 16176 16173 1
13543 16177 16176 1
13544 16179 16178 1
13545 16180 16179 1
13546 16181 16179 1
13547 16182 16179 1
13548 16183 16182 1
13549 16185 16184 1
13550 16186 16185 1
13551 16187 16185 1
13552 16188 16185 1
13553 16189 16188 1
13554 16191 16190 1
13555 16192 16191 1
13556 16193 16191 1
13557 16194 16191 1
13558 16195 16194 1
13559 16197 16196 1
13560 16198 16197 1
13561 16199 16197 1
13562 16200 16197 1
13563 16201 16200 1
13564 16203 16202 1
13565 16204 16203 1
13566 16205 16203 1
13567 16206 16203 1
13568 16207 16206 1
13569 16209 16208 1
13570 16210 16209 1
13571 16211 16209 1
13572 16212 16209 1
13573 16213 16212 1
13574 16215 16214 1
13575 16216 16215 1
13576 16217 16215 1
13577 16218 16215 1
13578 16219 16218 1
13579 16221 16220 1
13580 16222 16221 1
13581 16223 16221 1
13582 16224 16221 1
13583 16225 16224 1
13584 16227 16226 1
13585 16228 16227 1
13586 16229 16227 1
13587 16230 16227 1
13588 16231 16230 1
13589 16233 16232 1
13590 16234 16233 1
13591 16235 16233 1
13592 16236 16233 1
13593 16237 16236 1
13594 16239 16238 1
13595 16240 16239 1
13596 16241 16239 1
13597 16242 16239 1
13598 16243 16242 1
13599 16245 16244 1
13600 16246 16245 1
13601 16247 16245 1
13602 16248 16245 1
13603 16249 16248 1
13604 16251 16250 1
13605 16252 16251 1
13606 16253 16251 1
13607 16254 16251 1
13608 16255 16254 1
13609 16257 16256 1
13610 16258 16257 1
13611 16259 16257 1
13612 16260 16257 1
13613 16261 16260 1
13614 16263 16262 1
13615 16264 16263 1
13616 16265 16263 1
13617 16266 16263 1
13618 16267 16266 1
13619 16269 16268 1
13620 16270 16269 1
13621 16271 16269 1
13622 16272 16269 1
13623 16273 16272 1
13624 16275 16274 1
13625 16276 16275 1
13626 16277 16275 1
13627 16278 16275 1
13628 16279 16278 1
13629 16281 16280 1
13630 16282 16281 1
13631 16283 16281 1
13632 16284 16281 1
13633 16285 16284 1
13634 16287 16286 1
13635 16288 16287 1
13636 16289 16287 1
13637 16290 16287 1
13638 16291 16290 1
13639 16293 16292 1
13640 16294 16293 1
13641 16295 16293 1
13642 16296 16293 1
13643 16297 16296 1
13644 16299 16298 1
13645 16300 16299 1
13646 16301 16299 1
13647 16302 16299 1
13648 16303 16302 1
13649 16305 16304 1
13650 16306 16305 1
13651 16307 16305 1
13652 16308 16305 1
13653 16309 16308 1
13654 16311 16310 1
13655 16312 16311 1
13656 16313 16311 1
13657 16314 16311 1
13658 16315 16314 1
13659 16317 16316 1
13660 16318 16317 1
13661 16319 16317 1
13662 16320 16317 1
13663 16321 16320 1
13664 16323 16322 1
13665 16324 16323 1
13666 16325 16323 1
13667 16326 16323 1
13668 16327 16326 1
13669 16329 16328 1
13670 16330 16329 1
13671 16331 16329 1
13672 16332 16329 1
13673 16333 16332 1
13674 16335 16334 1
13675 16336 16335 1
13676 16337 16335 1
13677 16338 16335 1
13678 16339 16338 1
13679 16341 16340 1
13680 16342 16341 1
13681 16343 16341 1
13682 16344 16341 1
13683 16345 16344 1
13684 16347 16346 1
13685 16348 16347 1
13686 16349 16347 1
13687 16350 16347 1
13688 16351 16350 1
13689 16353 16352 1
13690 16354 16353 1
13691 16355 16353 1
13692 16356 16353 1
13693 16357 16356 1
13694 16359 16358 1
13695 16360 16359 1
13696 16361 16359 1
13697 16362 16359 1
13698 16363 16362 1
13699 16365 16364 1
13700 16366 16365 1
13701 16367 16365 1
13702 16368 16365 1
13703 16369 16368 1
13704 16371 16370 1
13705 16372 16371 1
13706 16373 16371 1
13707 16374 16371 1
13708 16375 16374 1
13709 16377 16376 1
13710 16378 16377 1
13711 16379 16377 1
13712 16380 16377 1
13713 16381 16380 1
13714 16383 16382 1
13715 16384 16383 1
13716 16385 16383 1
13717 16386 16383 1
13718 16387 16386 1
13719 16389 16388 1
13720 16390 16389 1
13721 16391 16389 1
13722 16392 16389 1
13723 16393 16392 1
13724 16395 16394 1
13725 16396 16395 1
13726 16397 16395 1
13727 16398 16395 1
13728 16399 16398 1
13729 16401 16400 1
13730 16402 16401 1
13731 16403 16401 1
13732 16404 16401 1
13733 16405 16404 1
13734 16407 16406 1
13735 16408 16407 1
13736 16409 16407 1
13737 16410 16407 1
13738 16411 16410 1
13739 16413 16412 1
13740 16414 16413 1
13741 16415 16413 1
13742 16416 16413 1
13743 16417 16416 1
13744 16419 16418 1
13745 16420 16419 1
13746 16421 16419 1
13747 16422 16419 1
13748 16423 16422 1
13749 16425 16424 1
13750 16426 16425 1
13751 16427 16425 1
13752 16428 16425 1
13753 16429 16428 1
13754 16431 16430 1
13755 16432 16431 1
13756 16433 16431 1
13757 16434 16431 1
13758 16435 16434 1
13759 16437 16436 1
13760 16438 16437 1
13761 16439 16437 1
13762 16440 16437 1
13763 16441 16440 1
13764 16443 16442 1
13765 16444 16443 1
13766 16445 16443 1
13767 16446 16443 1
13768 16447 16446 1
13769 16449 16448 1
13770 16450 16449 1
13771 16451 16449 1
13772 16452 16449 1
13773 16453 16452 1
13774 16455 16454 1
13775 16456 16455 1
13776 16457 16455 1
13777 16458 16455 1
13778 16459 16458 1
13779 16461 16460 1
13780 16462 16461 1
13781 16463 16461 1
13782 16464 16461 1
13783 16465 16464 1
13784 16467 16466 1
13785 16468 16467 1
13786 16469 16467 1
13787 16470 16467 1
13788 16471 16470 1
13789 16473 16472 1
13790 16474 16473 1
13791 16475 16473 1
13792 16476 16473 1
13793 16477 16476 1
13794 16479 16478 1
13795 16480 16479 1
13796 16481 16479 1
13797 16482 16479 1
13798 16483 16482 1
13799 16485 16484 1
13800 16486 16485 1
13801 16487 16485 1
13802 16488 16485 1
13803 16489 16488 1
13804 16491 16490 1
13805 16492 16491 1
13806 16493 16491 1
13807 16494 16491 1
13808 16495 16494 1
13809 16497 16496 1
13810 16498 16497 1
13811 16499 16497 1
13812 16500 16497 1
13813 16501 16500 1
13814 16503 16502 1
13815 16504 16503 1
13816 16505 16503 1
13817 16506 16503 1
13818 16507 16506 1
13819 16509 16508 1
13820 16510 16509 1
13821 16511 16509 1
13822 16512 16509 1
13823 16513 16512 1
13824 16515 16514 1
13825 16516 16515 1
13826 16517 16515 1
13827 16518 16515 1
13828 16519 16518 1
13829 16521 16520 1
13830 16522 16521 1
13831 16523 16521 1
13832 16524 16521 1
13833 16525 16524 1
13834 16527 16526 1
13835 16528 16527 1
13836 16529 16527 1
13837 16530 16527 1
13838 16531 16530 1
13839 16533 16532 1
13840 16534 16533 1
13841 16535 16533 1
13842 16536 16533 1
13843 16537 16536 1
13844 16539 16538 1
13845 16540 16539 1
13846 16541 16539 1
13847 16542 16539 1
13848 16543 16542 1
13849 16545 16544 1
13850 16546 16545 1
13851 16547 16545 1
13852 16548 16545 1
13853 16549 16548 1
13854 16551 16550 1
13855 16552 16551 1
13856 16553 16551 1
13857 16554 16551 1
13858 16555 16554 1
13859 16557 16556 1
13860 16558 16557 1
13861 16559 16557 1
13862 16560 16557 1
13863 16561 16560 1
13864 16563 16562 1
13865 16564 16563 1
13866 16565 16563 1
13867 16566 16563 1
13868 16567 16566 1
13869 16569 16568 1
13870 16570 16569 1
13871 16571 16569 1
13872 16572 16569 1
13873 16573 16572 1
13874 16575 16574 1
13875 16576 16575 1
13876 16577 16575 1
13877 16578 16575 1
13878 16579 16578 1
13879 16581 16580 1
13880 16582 16581 1
13881 16583 16581 1
13882 16584 16581 1
13883 16585 16584 1
13884 16587 16586 1
13885 16588 16587 1
13886 16589 16587 1
13887 16590 16587 1
13888 16591 16590 1
13889 16593 16592 1
13890 16594 16593 1
13891 16595 16593 1
13892 16596 16593 1
13893 16597 16596 1
13894 16599 16598 1
13895 16600 16599 1
13896 16601 16599 1
13897 16602 16599 1
13898 16603 16602 1
13899 16605 16604 1
13900 16606 16605 1
13901 16607 16605 1
13902 16608 16605 1
13903 16609 16608 1
13904 16611 16610 1
13905 16612 16611 1
13906 16613 16611 1
13907 16614 16611 1
13908 16615 16614 1
13909 16617 16616 1
13910 16618 16617 1
13911 16619 16617 1
13912 16620 16617 1
13913 16621 16620 1
13914 16623 16622 1
13915 16624 16623 1
13916 16625 16623 1
13917 16626 16623 1
13918 16627 16626 1
13919 16629 16628 1
13920 16630 16629 1
13921 16631 16629 1
13922 16632 16629 1
13923 16633 16632 1
13924 16635 16634 1
13925 16636 16635 1
13926 16637 16635 1
13927 16638 16635 1
13928 16639 16638 1
13929 16641 16640 1
13930 16642 16641 1
13931 16643 16641 1
13932 16644 16641 1
13933 16645 16644 1
13934 16647 16646 1
13935 16648 16647 1
13936 16649 16647 1
13937 16650 16647 1
13938 16651 16650 1
13939 16653 16652 1
13940 16654 16653 1
13941 16655 16653 1
13942 16656 16653 1
13943 16657 16656 1
13944 16659 16658 1
13945 16660 16659 1
13946 16661 16659 1
13947 16662 16659 1
13948 16663 16662 1
13949 16665 16664 1
13950 16666 16665 1
13951 16667 16665 1
13952 16668 16665 1
13953 16669 16668 1
13954 16671 16670 1
13955 16672 16671 1
13956 16673 16671 1
13957 16674 16671 1
13958 16675 16674 1
13959 16677 16676 1
13960 16678 16677 1
13961 16679 16677 1
13962 16680 16677 1
13963 16681 16680 1
13964 16683 16682 1
13965 16684 16683 1
13966 16685 16683 1
13967 16686 16683 1
13968 16687 16686 1
13969 16689 16688 1
13970 16690 16689 1
13971 16691 16689 1
13972 16692 16689 1
13973 16693 16692 1
13974 16695 16694 1
13975 16696 16695 1
13976 16697 16695 1
13977 16698 16695 1
13978 16699 16698 1
13979 16701 16700 1
13980 16702 16701 1
13981 16703 16701 1
13982 16704 16701 1
13983 16705 16704 1
13984 16707 16706 1
13985 16708 16707 1
13986 16709 16707 1
13987 16710 16707 1
13988 16711 16710 1
13989 16713 16712 1
13990 16714 16713 1
13991 16715 16713 1
13992 16716 16713 1
13993 16717 16716 1
13994 16719 16718 1
13995 16720 16719 1
13996 16721 16719 1
13997 16722 16719 1
13998 16723 16722 1
13999 16725 16724 1
14000 16726 16725 1
14001 16727 16725 1
14002 16728 16725 1
14003 16729 16728 1
14004 16731 16730 1
14005 16732 16731 1
14006 16733 16731 1
14007 16734 16731 1
14008 16735 16734 1
14009 16737 16736 1
14010 16738 16737 1
14011 16739 16737 1
14012 16740 16737 1
14013 16741 16740 1
14014 16743 16742 1
14015 16744 16743 1
14016 16745 16743 1
14017 16746 16743 1
14018 16747 16746 1
14019 16749 16748 1
14020 16750 16749 1
14021 16751 16749 1
14022 16752 16749 1
14023 16753 16752 1
14024 16755 16754 1
14025 16756 16755 1
14026 16757 16755 1
14027 16758 16755 1
14028 16759 16758 1
14029 16761 16760 1
14030 16762 16761 1
14031 16763 16761 1
14032 16764 16761 1
14033 16765 16764 1
14034 16767 16766 1
14035 16768 16767 1
14036 16769 16767 1
14037 16770 16767 1
14038 16771 16770 1
14039 16773 16772 1
14040 16774 16773 1
14041 16775 16773 1
14042 16776 16773 1
14043 16777 16776 1
14044 16779 16778 1
14045 16780 16779 1
14046 16781 16779 1
14047 16782 16779 1
14048 16783 16782 1
14049 16785 16784 1
14050 16786 16785 1
14051 16787 16785 1
14052 16788 16785 1
14053 16789 16788 1
14054 16791 16790 1
14055 16792 16791 1
14056 16793 16791 1
14057 16794 16791 1
14058 16795 16794 1
14059 16797 16796 1
14060 16798 16797 1
14061 16799 16797 1
14062 16800 16797 1
14063 16801 16800 1
14064 16803 16802 1
14065 16804 16803 1
14066 16805 16803 1
14067 16806 16803 1
14068 16807 16806 1
14069 16809 16808 1
14070 16810 16809 1
14071 16811 16809 1
14072 16812 16809 1
14073 16813 16812 1
14074 16815 16814 1
14075 16816 16815 1
14076 16817 16815 1
14077 16818 16815 1
14078 16819 16818 1
14079 16821 16820 1
14080 16822 16821 1
14081 16823 16821 1
14082 16824 16821 1
14083 16825 16824 1
14084 16827 16826 1
14085 16828 16827 1
14086 16829 16827 1
14087 16830 16827 1
14088 16831 16830 1
14089 16833 16832 1
14090 16834 16833 1
14091 16835 16833 1
14092 16836 16833 1
14093 16837 16836 1
14094 16839 16838 1
14095 16840 16839 1
14096 16841 16839 1
14097 16842 16839 1
14098 16843 16842 1
14099 16845 16844 1
14100 16846 16845 1
14101 16847 16845 1
14102 16848 16845 1
14103 16849 16848 1
14104 16851 16850 1
14105 16852 16851 1
14106 16853 16851 1
14107 16854 16851 1
14108 16855 16854 1
14109 16857 16856 1
14110 16858 16857 1
14111 16859 16857 1
14112 16860 16857 1
14113 16861 16860 1
14114 16863 16862 1
14115 16864 16863 1
14116 16865 16863 1
14117 16866 16863 1
14118 16867 16866 1
14119 16869 16868 1
14120 16870 16869 1
14121 16871 16869 1
14122 16872 16869 1
14123 16873 16872 1
14124 16875 16874 1
14125 16876 16875 1
14126 16877 16875 1
14127 16878 16875 1
14128 16879 16878 1
14129 16881 16880 1
14130 16882 16881 1
14131 16883 16881 1
14132 16884 16881 1
14133 16885 16884 1
14134 16887 16886 1
14135 16888 16887 1
14136 16889 16887 1
14137 16890 16887 1
14138 16891 16890 1
14139 16893 16892 1
14140 16894 16893 1
14141 16895 16893 1
14142 16896 16893 1
14143 16897 16896 1
14144 16899 16898 1
14145 16900 16899 1
14146 16901 16899 1
14147 16902 16899 1
14148 16903 16902 1
14149 16905 16904 1
14150 16906 16905 1
14151 16907 16905 1
14152 16908 16905 1
14153 16909 16908 1
14154 16911 16910 1
14155 16912 16911 1
14156 16913 16911 1
14157 16914 16911 1
14158 16915 16914 1
14159 16917 16916 1
14160 16918 16917 1
14161 16919 16917 1
14162 16920 16917 1
14163 16921 16920 1
14164 16923 16922 1
14165 16924 16923 1
14166 16925 16923 1
14167 16926 16923 1
14168 16927 16926 1
14169 16929 16928 1
14170 16930 16929 1
14171 16931 16929 1
14172 16932 16929 1
14173 16933 16932 1
14174 16935 16934 1
14175 16936 16935 1
14176 16937 16935 1
14177 16938 16935 1
14178 16939 16938 1
14179 16941 16940 1
14180 16942 16941 1
14181 16943 16941 1
14182 16944 16941 1
14183 16945 16944 1
14184 16947 16946 1
14185 16948 16947 1
14186 16949 16947 1
14187 16950 16947 1
14188 16951 16950 1
14189 16953 16952 1
14190 16954 16953 1
14191 16955 16953 1
14192 16956 16953 1
14193 16957 16956 1
14194 16959 16958 1
14195 16960 16959 1
14196 16961 16959 1
14197 16962 16959 1
14198 16963 16962 1
14199 16965 16964 1
14200 16966 16965 1
14201 16967 16965 1
14202 16968 16965 1
14203 16969 16968 1
14204 16971 16970 1
14205 16972 16971 1
14206 16973 16971 1
14207 16974 16971 1
14208 16975 16974 1
14209 16977 16976 1
14210 16978 16977 1
14211 16979 16977 1
14212 16980 16977 1
14213 16981 16980 1
14214 16983 16982 1
14215 16984 16983 1
14216 16985 16983 1
14217 16986 16983 1
14218 16987 16986 1
14219 16989 16988 1
14220 16990 16989 1
14221 16991 16989 1
14222 16992 16989 1
14223 16993 16992 1
14224 16995 16994 1
14225 16996 16995 1
14226 16997 16995 1
14227 16998 16995 1
14228 16999 16998 1
14229 17001 17000 1
14230 17002 17001 1
14231 17003 17001 1
14232 17004 17001 1
14233 17005 17004 1
14234 17007 17006 1
14235 17008 17007 1
14236 17009 17007 1
14237 17010 17007 1
14238 17011 17010 1
14239 17013 17012 1
14240 17014 17013 1
14241 17015 17013 1
14242 17016 17013 1
14243 17017 17016 1
14244 17019 17018 1
14245 17020 17019 1
14246 17021 17019 1
14247 17022 17019 1
14248 17023 17022 1
14249 17025 17024 1
14250 17026 17025 1
14251 17027 17025 1
14252 17028 17025 1
14253 17029 17028 1
14254 17031 17030 1
14255 17032 17031 1
14256 17033 17031 1
14257 17034 17031 1
14258 17035 17034 1
14259 17037 17036 1
14260 17038 17037 1
14261 17039 17037 1
14262 17040 17037 1
14263 17041 17040 1
14264 17043 17042 1
14265 17044 17043 1
14266 17045 17043 1
14267 17046 17043 1
14268 17047 17046 1
14269 17049 17048 1
14270 17050 17049 1
14271 17051 17049 1
14272 17052 17049 1
14273 17053 17052 1
14274 17055 17054 1
14275 17056 17055 1
14276 17057 17055 1
14277 17058 17055 1
14278 17059 17058 1
14279 17061 17060 1
14280 17062 17061 1
14281 17063 17061 1
14282 17064 17061 1
14283 17065 17064 1
14284 17067 17066 1
14285 17068 17067 1
14286 17069 17067 1
14287 17070 17067 1
14288 17071 17070 1
14289 17073 17072 1
14290 17074 17073 1
14291 17075 17073 1
14292 17076 17073 1
14293 17077 17076 1
14294 17079 17078 1
14295 17080 17079 1
14296 17081 17079 1
14297 17082 17079 1
14298 17083 17082 1
14299 17085 17084 1
14300 17086 17085 1
14301 17087 17085 1
14302 17088 17085 1
14303 17089 17088 1
14304 17091 17090 1
14305 17092 17091 1
14306 17093 17091 1
14307 17094 17091 1
14308 17095 17094 1
14309 17097 17096 1
14310 17098 17097 1
14311 17099 17097 1
14312 17100 17097 1
14313 17101 17100 1
14314 17103 17102 1
14315 17104 17103 1
14316 17105 17103 1
14317 17106 17103 1
14318 17107 17106 1
14319 17109 17108 1
14320 17110 17109 1
14321 17111 17109 1
14322 17112 17109 1
14323 17113 17112 1
14324 17115 17114 1
14325 17116 17115 1
14326 17117 17115 1
14327 17118 17115 1
14328 17119 17118 1
14329 17121 17120 1
14330 17122 17121 1
14331 17123 17121 1
14332 17124 17121 1
14333 17125 17124 1
14334 17127 17126 1
14335 17128 17127 1
14336 17129 17127 1
14337 17130 17127 1
14338 17131 17130 1
14339 17133 17132 1
14340 17134 17133 1
14341 17135 17133 1
14342 17136 17133 1
14343 17137 17136 1
14344 17139 17138 1
14345 17140 17139 1
14346 17141 17139 1
14347 17142 17139 1
14348 17143 17142 1
14349 17145 17144 1
14350 17146 17145 1
14351 17147 17145 1
14352 17148 17145 1
14353 17149 17148 1
14354 17151 17150 1
14355 17152 17151 1
14356 17153 17151 1
14357 17154 17151 1
14358 17155 17154 1
14359 17157 17156 1
14360 17158 17157 1
14361 17159 17157 1
14362 17160 17157 1
14363 17161 17160 1
14364 17163 17162 1
14365 17164 17163 1
14366 17165 17163 1
14367 17166 17163 1
14368 17167 17166 1
14369 17169 17168 1
14370 17170 17169 1
14371 17171 17169 1
14372 17172 17169 1
14373 17173 17172 1
14374 17175 17174 1
14375 17176 17175 1
14376 17177 17175 1
14377 17178 17175 1
14378 17179 17178 1
14379 17181 17180 1
14380 17182 17181 1
14381 17183 17181 1
14382 17184 17181 1
14383 17185 17184 1
14384 17187 17186 1
14385 17188 17187 1
14386 17189 17187 1
14387 17190 17187 1
14388 17191 17190 1
14389 17193 17192 1
14390 17194 17193 1
14391 17195 17193 1
14392 17196 17193 1
14393 17197 17196 1
14394 17199 17198 1
14395 17200 17199 1
14396 17201 17199 1
14397 17202 17199 1
14398 17203 17202 1
14399 17205 17204 1
14400 17206 17205 1
14401 17207 17205 1
14402 17208 17205 1
14403 17209 17208 1
14404 17211 17210 1
14405 17212 17211 1
14406 17213 17211 1
14407 17214 17211 1
14408 17215 17214 1
14409 17217 17216 1
14410 17218 17217 1
14411 17219 17217 1
14412 17220 17217 1
14413 17221 17220 1
14414 17223 17222 1
14415 17224 17223 1
14416 17225 17223 1
14417 17226 17223 1
14418 17227 17226 1
14419 17229 17228 1
14420 17230 17229 1
14421 17231 17229 1
14422 17232 17229 1
14423 17233 17232 1
14424 17235 17234 1
14425 17236 17235 1
14426 17237 17235 1
14427 17238 17235 1
14428 17239 17238 1
14429 17241 17240 1
14430 17242 17241 1
14431 17243 17241 1
14432 17244 17241 1
14433 17245 17244 1
14434 17247 17246 1
14435 17248 17247 1
14436 17249 17247 1
14437 17250 17247 1
14438 17251 17250 1
14439 17253 17252 1
14440 17254 17253 1
14441 17255 17253 1
14442 17256 17253 1
14443 17257 17256 1
14444 17259 17258 1
14445 17260 17259 1
14446 17261 17259 1
14447 17262 17259 1
14448 17263 17262 1
14449 17265 17264 1
14450 17266 17265 1
14451 17267 17265 1
14452 17268 17265 1
14453 17269 17268 1
14454 17271 17270 1
14455 17272 17271 1
14456 17273 17271 1
14457 17274 17271 1
14458 17275 17274 1
14459 17277 17276 1
14460 17278 17277 1
14461 17279 17277 1
14462 17280 17277 1
14463 17281 17280 1
14464 17283 17282 1
14465 17284 17283 1
14466 17285 17283 1
14467 17286 17283 1
14468 17287 17286 1
14469 17289 17288 1
14470 17290 17289 1
14471 17291 17289 1
14472 17292 17289 1
14473 17293 17292 1
14474 17295 17294 1
14475 17296 17295 1
14476 17297 17295 1
14477 17298 17295 1
14478 17299 17298 1
14479 17301 17300 1
14480 17302 17301 1
14481 17303 17301 1
14482 17304 17301 1
14483 17305 17304 1
14484 17307 17306 1
14485 17308 17307 1
14486 17309 17307 1
14487 17310 17307 1
14488 17311 17310 1
14489 17313 17312 1
14490 17314 17313 1
14491 17315 17313 1
14492 17316 17313 1
14493 17317 17316 1
14494 17319 17318 1
14495 17320 17319 1
14496 17321 17319 1
14497 17322 17319 1
14498 17323 17322 1
14499 17325 17324 1
14500 17326 17325 1
14501 17327 17325 1
14502 17328 17325 1
14503 17329 17328 1
14504 17331 17330 1
14505 17332 17331 1
14506 17333 17331 1
14507 17334 17331 1
14508 17335 17334 1
14509 17337 17336 1
14510 17338 17337 1
14511 17339 17337 1
14512 17340 17337 1
14513 17341 17340 1
14514 17343 17342 1
14515 17344 17343 1
14516 17345 17343 1
14517 17346 17343 1
14518 17347 17346 1
14519 17349 17348 1
14520 17350 17349 1
14521 17351 17349 1
14522 17352 17349 1
14523 17353 17352 1
14524 17355 17354 1
14525 17356 17355 1
14526 17357 17355 1
14527 17358 17355 1
14528 17359 17358 1
14529 17361 17360 1
14530 17362 17361 1
14531 17363 17361 1
14532 17364 17361 1
14533 17365 17364 1
14534 17367 17366 1
14535 17368 17367 1
14536 17369 17367 1
14537 17370 17367 1
14538 17371 17370 1
14539 17373 17372 1
14540 17374 17373 1
14541 17375 17373 1
14542 17376 17373 1
14543 17377 17376 1
14544 17379 17378 1
14545 17380 17379 1
14546 17381 17379 1
14547 17382 17379 1
14548 17383 17382 1
14549 17385 17384 1
14550 17386 17385 1
14551 17387 17385 1
14552 17388 17385 1
14553 17389 17388 1
14554 17391 17390 1
14555 17392 17391 1
14556 17393 17391 1
14557 17394 17391 1
14558 17395 17394 1
14559 17397 17396 1
14560 17398 17397 1
14561 17399 17397 1
14562 17400 17397 1
14563 17401 17400 1
14564 17403 17402 1
14565 17404 17403 1
14566 17405 17403 1
14567 17406 17403 1
14568 17407 17406 1
14569 17409 17408 1
14570 17410 17409 1
14571 17411 17409 1
14572 17412 17409 1
14573 17413 17412 1
14574 17415 17414 1
14575 17416 17415 1
14576 17417 17415 1
14577 17418 17415 1
14578 17419 17418 1
14579 17421 17420 1
14580 17422 17421 1
14581 17423 17421 1
14582 17424 17421 1
14583 17425 17424 1
14584 17427 17426 1
14585 17428 17427 1
14586 17429 17427 1
14587 17430 17427 1
14588 17431 17430 1
14589 17433 17432 1
14590 17434 17433 1
14591 17435 17433 1
14592 17436 17433 1
14593 17437 17436 1
14594 17439 17438 1
14595 17440 17439 1
14596 17441 17439 1
14597 17442 17439 1
14598 17443 17442 1
14599 17445 17444 1
14600 17446 17445 1
14601 17447 17445 1
14602 17448 17445 1
14603 17449 17448 1
14604 17451 17450 1
14605 17452 17451 1
14606 17453 17451 1
14607 17454 17451 1
14608 17455 17454 1
14609 17457 17456 1
14610 17458 17457 1
14611 17459 17457 1
14612 17460 17457 1
14613 17461 17460 1
14614 17463 17462 1
14615 17464 17463 1
14616 17465 17463 1
14617 17466 17463 1
14618 17467 17466 1
14619 17469 17468 1
14620 17470 17469 1
14621 17471 17469 1
14622 17472 17469 1
14623 17473 17472 1
14624 17475 17474 1
14625 17476 17475 1
14626 17477 17475 1
14627 17478 17475 1
14628 17479 17478 1
14629 17481 17480 1
14630 17482 17481 1
14631 17483 17481 1
14632 17484 17481 1
14633 17485 17484 1
14634 17487 17486 1
14635 17488 17487 1
14636 17489 17487 1
14637 17490 17487 1
14638 17491 17490 1
14639 17493 17492 1
14640 17494 17493 1
14641 17495 17493 1
14642 17496 17493 1
14643 17497 17496 1
14644 17499 17498 1
14645 17500 17499 1
14646 17501 17499 1
14647 17502 17499 1
14648 17503 17502 1
14649 17505 17504 1
14650 17506 17505 1
14651 17507 17505 1
14652 17508 17505 1
14653 17509 17508 1
14654 17511 17510 1
14655 17512 17511 1
14656 17513 17511 1
14657 17514 17511 1
14658 17515 17514 1
14659 17517 17516 1
14660 17518 17517 1
14661 17519 17517 1
14662 17520 17517 1
14663 17521 17520 1
14664 17523 17522 1
14665 17524 17523 1
14666 17525 17523 1
14667 17526 17523 1
14668 17527 17526 1
14669 17529 17528 1
14670 17530 17529 1
14671 17531 17529 1
14672 17532 17529 1
14673 17533 17532 1
14674 17535 17534 1
14675 17536 17535 1
14676 17537 17535 1
14677 17538 17535 1
14678 17539 17538 1
14679 17541 17540 1
14680 17542 17541 1
14681 17543 17541 1
14682 17544 17541 1
14683 17545 17544 1
14684 17547 17546 1
14685 17548 17547 1
14686 17549 17547 1
14687 17550 17547 1
14688 17551 17550 1
14689 17553 17552 1
14690 17554 17553 1
14691 17555 17553 1
14692 17556 17553 1
14693 17557 17556 1
14694 17559 17558 1
14695 17560 17559 1
14696 17561 17559 1
14697 17562 17559 1
14698 17563 17562 1
14699 17565 17564 1
14700 17566 17565 1
14701 17567 17565 1
14702 17568 17565 1
14703 17569 17568 1
14704 17571 17570 1
14705 17572 17571 1
14706 17573 17571 1
14707 17574 17571 1
14708 17575 17574 1
14709 17577 17576 1
14710 17578 17577 1
14711 17579 17577 1
14712 17580 17577 1
14713 17581 17580 1
14714 17583 17582 1
14715 17584 17583 1
14716 17585 17583 1
14717 17586 17583 1
14718 17587 17586 1
14719 17589 17588 1
14720 17590 17589 1
14721 17591 17589 1
14722 17592 17589 1
14723 17593 17592 1
14724 17595 17594 1
14725 17596 17595 1
14726 17597 17595 1
14727 17598 17595 1
14728 17599 17598 1
14729 17601 17600 1
14730 17602 17601 1
14731 17603 17601 1
14732 17604 17601 1
14733 17605 17604 1
14734 17607 17606 1
14735 17608 17607 1
14736 17609 17607 1
14737 17610 17607 1
14738 17611 17610 1
14739 17613 17612 1
14740 17614 17613 1
14741 17615 17613 1
14742 17616 17613 1
14743 17617 17616 1
14744 17619 17618 1
14745 17620 17619 1
14746 17621 17619 1
14747 17622 17619 1
14748 17623 17622 1
14749 17625 17624 1
14750 17626 17625 1
14751 17627 17625 1
14752 17628 17625 1
14753 17629 17628 1
14754 17631 17630 1
14755 17632 17631 1
14756 17633 17631 1
14757 17634 17631 1
14758 17635 17634 1
14759 17637 17636 1
14760 17638 17637 1
14761 17639 17637 1
14762 17640 17637 1
14763 17641 17640 1
14764 17643 17642 1
14765 17644 17643 1
14766 17645 17643 1
14767 17646 17643 1
14768 17647 17646 1
14769 17649 17648 1
14770 17650 17649 1
14771 17651 17649 1
14772 17652 17649 1
14773 17653 17652 1
14774 17655 17654 1
14775 17656 17655 1
14776 17657 17655 1
14777 17658 17655 1
14778 17659 17658 1
14779 17661 17660 1
14780 17662 17661 1
14781 17663 17661 1
14782 17664 17661 1
14783 17665 17664 1
14784 17667 17666 1
14785 17668 17667 1
14786 17669 17667 1
14787 17670 17667 1
14788 17671 17670 1
14789 17673 17672 1
14790 17674 17673 1
14791 17675 17673 1
14792 17676 17673 1
14793 17677 17676 1
14794 17679 17678 1
14795 17680 17679 1
14796 17681 17679 1
14797 17682 17679 1
14798 17683 17682 1
14799 17685 17684 1
14800 17686 17685 1
14801 17687 17685 1
14802 17688 17685 1
14803 17689 17688 1
14804 17691 17690 1
14805 17692 17691 1
14806 17693 17691 1
14807 17694 17691 1
14808 17695 17694 1
14809 17697 17696 1
14810 17698 17697 1
14811 17699 17697 1
14812 17700 17697 1
14813 17701 17700 1
14814 17703 17702 1
14815 17704 17703 1
14816 17705 17703 1
14817 17706 17703 1
14818 17707 17706 1
14819 17709 17708 1
14820 17710 17709 1
14821 17711 17709 1
14822 17712 17709 1
14823 17713 17712 1
14824 17715 17714 1
14825 17716 17715 1
14826 17717 17715 1
14827 17718 17715 1
14828 17719 17718 1
14829 17721 17720 1
14830 17722 17721 1
14831 17723 17721 1
14832 17724 17721 1
14833 17725 17724 1
14834 17727 17726 1
14835 17728 17727 1
14836 17729 17727 1
14837 17730 17727 1
14838 17731 17730 1
14839 17733 17732 1
14840 17734 17733 1
14841 17735 17733 1
14842 17736 17733 1
14843 17737 17736 1
14844 17739 17738 1
14845 17740 17739 1
14846 17741 17739 1
14847 17742 17739 1
14848 17743 17742 1
14849 17745 17744 1
14850 17746 17745 1
14851 17747 17745 1
14852 17748 17745 1
14853 17749 17748 1
14854 17751 17750 1
14855 17752 17751 1
14856 17753 17751 1
14857 17754 17751 1
14858 17755 17754 1
14859 17757 17756 1
14860 17758 17757 1
14861 17759 17757 1
14862 17760 17757 1
14863 17761 17760 1
14864 17763 17762 1
14865 17764 17763 1
14866 17765 17763 1
14867 17766 17763 1
14868 17767 17766 1
14869 17769 17768 1
14870 17770 17769 1
14871 17771 17769 1
14872 17772 17769 1
14873 17773 17772 1
14874 17775 17774 1
14875 17776 17775 1
14876 17777 17775 1
14877 17778 17775 1
14878 17779 17778 1
14879 17781 17780 1
14880 17782 17781 1
14881 17783 17781 1
14882 17784 17781 1
14883 17785 17784 1
14884 17787 17786 1
14885 17788 17787 1
14886 17789 17787 1
14887 17790 17787 1
14888 17791 17790 1
14889 17793 17792 1
14890 17794 17793 1
14891 17795 17793 1
14892 17796 17793 1
14893 17797 17796 1
14894 17799 17798 1
14895 17800 17799 1
14896 17801 17799 1
14897 17802 17799 1
14898 17803 17802 1
14899 17805 17804 1
14900 17806 17805 1
14901 17807 17805 1
14902 17808 17805 1
14903 17809 17808 1
14904 17811 17810 1
14905 17812 17811 1
14906 17813 17811 1
14907 17814 17811 1
14908 17815 17814 1
14909 17817 17816 1
14910 17818 17817 1
14911 17819 17817 1
14912 17820 17817 1
14913 17821 17820 1
14914 17823 17822 1
14915 17824 17823 1
14916 17825 17823 1
14917 17826 17823 1
14918 17827 17826 1
14919 17829 17828 1
14920 17830 17829 1
14921 17831 17829 1
14922 17832 17829 1
14923 17833 17832 1
14924 17835 17834 1
14925 17836 17835 1
14926 17837 17835 1
14927 17838 17835 1
14928 17839 17838 1
14929 17841 17840 1
14930 17842 17841 1
14931 17843 17841 1
14932 17844 17841 1
14933 17845 17844 1
14934 17847 17846 1
14935 17848 17847 1
14936 17849 17847 1
14937 17850 17847 1
14938 17851 17850 1
14939 17853 17852 1
14940 17854 17853 1
14941 17855 17853 1
14942 17856 17853 1
14943 17857 17856 1
14944 17859 17858 1
14945 17860 17859 1
14946 17861 17859 1
14947 17862 17859 1
14948 17863 17862 1
14949 17865 17864 1
14950 17866 17865 1
14951 17867 17865 1
14952 17868 17865 1
14953 17869 17868 1
14954 17871 17870 1
14955 17872 17871 1
14956 17873 17871 1
14957 17874 17871 1
14958 17875 17874 1
14959 17877 17876 1
14960 17878 17877 1
14961 17879 17877 1
14962 17880 17877 1
14963 17881 17880 1
14964 17883 17882 1
14965 17884 17883 1
14966 17885 17883 1
14967 17886 17883 1
14968 17887 17886 1
14969 17889 17888 1
14970 17890 17889 1
14971 17891 17889 1
14972 17892 17889 1
14973 17893 17892 1
14974 17895 17894 1
14975 17896 17895 1
14976 17897 17895 1
14977 17898 17895 1
14978 17899 17898 1
14979 17901 17900 1
14980 17902 17901 1
14981 17903 17901 1
14982 17904 17901 1
14983 17905 17904 1
14984 17907 17906 1
14985 17908 17907 1
14986 17909 17907 1
14987 17910 17907 1
14988 17911 17910 1
14989 17913 17912 1
14990 17914 17913 1
14991 17915 17913 1
14992 17916 17913 1
14993 17917 17916 1
14994 17919 17918 1
14995 17920 17919 1
14996 17921 17919 1
14997 17922 17919 1
14998 17923 17922 1
14999 17925 17924 1
15000 17926 17925 1
15001 17927 17925 1
15002 17928 17925 1
15003 17929 17928 1
15004 17931 17930 1
15005 17932 17931 1
15006 17933 17931 1
15007 17934 17931 1
15008 17935 17934 1
15009 17937 17936 1
15010 17938 17937 1
15011 17939 17937 1
15012 17940 17937 1
15013 17941 17940 1
15014 17943 17942 1
15015 17944 17943 1
15016 17945 17943 1
15017 17946 17943 1
15018 17947 17946 1
15019 17949 17948 1
15020 17950 17949 1
15021 17951 17949 1
15022 17952 17949 1
15023 17953 17952 1
15024 17955 17954 1
15025 17956 17955 1
15026 17957 17955 1
15027 17958 17955 1
15028 17959 17958 1
15029 17961 17960 1
15030 17962 17961 1
15031 17963 17961 1
15032 17964 17961 1
15033 17965 17964 1
15034 17967 17966 1
15035 17968 17967 1
15036 17969 17967 1
15037 17970 17967 1
15038 17971 17970 1
15039 17973 17972 1
15040 17974 17973 1
15041 17975 17973 1
15042 17976 17973 1
15043 17977 17976 1
15044 17979 17978 1
15045 17980 17979 1
15046 17981 17979 1
15047 17982 17979 1
15048 17983 17982 1
15049 17985 17984 1
15050 17986 17985 1
15051 17987 17985 1
15052 17988 17985 1
15053 17989 17988 1
15054 17991 17990 1
15055 17992 17991 1
15056 17993 17991 1
15057 17994 17991 1
15058 17995 17994 1
15059 17997 17996 1
15060 17998 17997 1
15061 17999 17997 1
15062 18000 17997 1
15063 18001 18000 1
15064 18003 18002 1
15065 18004 18003 1
15066 18005 18003 1
15067 18006 18003 1
15068 18007 18006 1
15069 18009 18008 1
15070 18010 18009 1
15071 18011 18009 1
15072 18012 18009 1
15073 18013 18012 1
15074 18015 18014 1
15075 18016 18015 1
15076 18017 18015 1
15077 18018 18015 1
15078 18019 18018 1
15079 18021 18020 1
15080 18022 18021 1
15081 18023 18021 1
15082 18024 18021 1
15083 18025 18024 1
15084 18027 18026 1
15085 18028 18027 1
15086 18029 18027 1
15087 18030 18027 1
15088 18031 18030 1
15089 18033 18032 1
15090 18034 18033 1
15091 18035 18033 1
15092 18036 18033 1
15093 18037 18036 1
15094 18039 18038 1
15095 18040 18039 1
15096 18041 18039 1
15097 18042 18039 1
15098 18043 18042 1
15099 18045 18044 1
15100 18046 18045 1
15101 18047 18045 1
15102 18048 18045 1
15103 18049 18048 1
15104 18051 18050 1
15105 18052 18051 1
15106 18053 18051 1
15107 18054 18051 1
15108 18055 18054 1
15109 18057 18056 1
15110 18058 18057 1
15111 18059 18057 1
15112 18060 18057 1
15113 18061 18060 1
15114 18063 18062 1
15115 18064 18063 1
15116 18065 18063 1
15117 18066 18063 1
15118 18067 18066 1
15119 18069 18068 1
15120 18070 18069 1
15121 18071 18069 1
15122 18072 18069 1
15123 18073 18072 1
15124 18075 18074 1
15125 18076 18075 1
15126 18077 18075 1
15127 18078 18075 1
15128 18079 18078 1
15129 18081 18080 1
15130 18082 18081 1
15131 18083 18081 1
15132 18084 18081 1
15133 18085 18084 1
15134 18087 18086 1
15135 18088 18087 1
15136 18089 18087 1
15137 18090 18087 1
15138 18091 18090 1
15139 18093 18092 1
15140 18094 18093 1
15141 18095 18093 1
15142 18096 18093 1
15143 18097 18096 1
15144 18099 18098 1
15145 18100 18099 1
15146 18101 18099 1
15147 18102 18099 1
15148 18103 18102 1
15149 18105 18104 1
15150 18106 18105 1
15151 18107 18105 1
15152 18108 18105 1
15153 18109 18108 1
15154 18111 18110 1
15155 18112 18111 1
15156 18113 18111 1
15157 18114 18111 1
15158 18115 18114 1
15159 18117 18116 1
15160 18118 18117 1
15161 18119 18117 1
15162 18120 18117 1
15163 18121 18120 1
15164 18123 18122 1
15165 18124 18123 1
15166 18125 18123 1
15167 18126 18123 1
15168 18127 18126 1
15169 18129 18128 1
15170 18130 18129 1
15171 18131 18129 1
15172 18132 18129 1
15173 18133 18132 1
15174 18135 18134 1
15175 18136 18135 1
15176 18137 18135 1
15177 18138 18135 1
15178 18139 18138 1
15179 18141 18140 1
15180 18142 18141 1
15181 18143 18141 1
15182 18144 18141 1
15183 18145 18144 1
15184 18147 18146 1
15185 18148 18147 1
15186 18149 18147 1
15187 18150 18147 1
15188 18151 18150 1
15189 18153 18152 1
15190 18154 18153 1
15191 18155 18153 1
15192 18156 18153 1
15193 18157 18156 1
15194 18159 18158 1
15195 18160 18159 1
15196 18161 18159 1
15197 18162 18159 1
15198 18163 18162 1
15199 18165 18164 1
15200 18166 18165 1
15201 18167 18165 1
15202 18168 18165 1
15203 18169 18168 1
15204 18171 18170 1
15205 18172 18171 1
15206 18173 18171 1
15207 18174 18171 1
15208 18175 18174 1
15209 18177 18176 1
15210 18178 18177 1
15211 18179 18177 1
15212 18180 18177 1
15213 18181 18180 1
15214 18183 18182 1
15215 18184 18183 1
15216 18185 18183 1
15217 18186 18183 1
15218 18187 18186 1
15219 18189 18188 1
15220 18190 18189 1
15221 18191 18189 1
15222 18192 18189 1
15223 18193 18192 1
15224 18195 18194 1
15225 18196 18195 1
15226 18197 18195 1
15227 18198 18195 1
15228 18199 18198 1
15229 18201 18200 1
15230 18202 18201 1
15231 18203 18201 1
15232 18204 18201 1
15233 18205 18204 1
15234 18207 18206 1
15235 18208 18207 1
15236 18209 18207 1
15237 18210 18207 1
15238 18211 18210 1
15239 18213 18212 1
15240 18214 18213 1
15241 18215 18213 1
15242 18216 18213 1
15243 18217 18216 1
15244 18219 18218 1
15245 18220 18219 1
15246 18221 18219 1
15247 18222 18219 1
15248 18223 18222 1
15249 18225 18224 1
15250 18226 18225 1
15251 18227 18225 1
15252 18228 18225 1
15253 18229 18228 1
15254 18231 18230 1
15255 18232 18231 1
15256 18233 18231 1
15257 18234 18231 1
15258 18235 18234 1
15259 18237 18236 1
15260 18238 18237 1
15261 18239 18237 1
15262 18240 18237 1
15263 18241 18240 1
15264 18243 18242 1
15265 18244 18243 1
15266 18245 18243 1
15267 18246 18243 1
15268 18247 18246 1
15269 18249 18248 1
15270 18250 18249 1
15271 18251 18249 1
15272 18252 18249 1
15273 18253 18252 1
15274 18255 18254 1
15275 18256 18255 1
15276 18257 18255 1
15277 18258 18255 1
15278 18259 18258 1
15279 18261 18260 1
15280 18262 18261 1
15281 18263 18261 1
15282 18264 18261 1
15283 18265 18264 1
15284 18267 18266 1
15285 18268 18267 1
15286 18269 18267 1
15287 18270 18267 1
15288 18271 18270 1
15289 18273 18272 1
15290 18274 18273 1
15291 18275 18273 1
15292 18276 18273 1
15293 18277 18276 1
15294 18279 18278 1
15295 18280 18279 1
15296 18281 18279 1
15297 18282 18279 1
15298 18283 18282 1
15299 18285 18284 1
15300 18286 18285 1
15301 18287 18285 1
15302 18288 18285 1
15303 18289 18288 1
15304 18291 18290 1
15305 18292 18291 1
15306 18293 18291 1
15307 18294 18291 1
15308 18295 18294 1
15309 18297 18296 1
15310 18298 18297 1
15311 18299 18297 1
15312 18300 18297 1
15313 18301 18300 1
15314 18303 18302 1
15315 18304 18303 1
15316 18305 18303 1
15317 18306 18303 1
15318 18307 18306 1
15319 18309 18308 1
15320 18310 18309 1
15321 18311 18309 1
15322 18312 18309 1
15323 18313 18312 1
15324 18315 18314 1
15325 18316 18315 1
15326 18317 18315 1
15327 18318 18315 1
15328 18319 18318 1
15329 18321 18320 1
15330 18322 18321 1
15331 18323 18321 1
15332 18324 18321 1
15333 18325 18324 1
15334 18327 18326 1
15335 18328 18327 1
15336 18329 18327 1
15337 18330 18327 1
15338 18331 18330 1
15339 18333 18332 1
15340 18334 18333 1
15341 18335 18333 1
15342 18336 18333 1
15343 18337 18336 1
15344 18339 18338 1
15345 18340 18339 1
15346 18341 18339 1
15347 18342 18339 1
15348 18343 18342 1
15349 18345 18344 1
15350 18346 18345 1
15351 18347 18345 1
15352 18348 18345 1
15353 18349 18348 1
15354 18351 18350 1
15355 18352 18351 1
15356 18353 18351 1
15357 18354 18351 1
15358 18355 18354 1
15359 18357 18356 1
15360 18358 18357 1
15361 18359 18357 1
15362 18360 18357 1
15363 18361 18360 1
15364 18363 18362 1
15365 18364 18363 1
15366 18365 18363 1
15367 18366 18363 1
15368 18367 18366 1
15369 18369 18368 1
15370 18370 18369 1
15371 18371 18369 1
15372 18372 18369 1
15373 18373 18372 1
15374 18375 18374 1
15375 18376 18375 1
15376 18377 18375 1
15377 18378 18375 1
15378 18379 18378 1
15379 18381 18380 1
15380 18382 18381 1
15381 18383 18381 1
15382 18384 18381 1
15383 18385 18384 1
15384 18387 18386 1
15385 18388 18387 1
15386 18389 18387 1
15387 18390 18387 1
15388 18391 18390 1
15389 18393 18392 1
15390 18394 18393 1
15391 18395 18393 1
15392 18396 18393 1
15393 18397 18396 1
15394 18399 18398 1
15395 18400 18399 1
15396 18401 18399 1
15397 18402 18399 1
15398 18403 18402 1
15399 18405 18404 1
15400 18406 18405 1
15401 18407 18405 1
15402 18408 18405 1
15403 18409 18408 1
15404 18411 18410 1
15405 18412 18411 1
15406 18413 18411 1
15407 18414 18411 1
15408 18415 18414 1
15409 18417 18416 1
15410 18418 18417 1
15411 18419 18417 1
15412 18420 18417 1
15413 18421 18420 1
15414 18423 18422 1
15415 18424 18423 1
15416 18425 18423 1
15417 18426 18423 1
15418 18427 18426 1
15419 18429 18428 1
15420 18430 18429 1
15421 18431 18429 1
15422 18432 18429 1
15423 18433 18432 1
15424 18435 18434 1
15425 18436 18435 1
15426 18437 18435 1
15427 18438 18435 1
15428 18439 18438 1
15429 18441 18440 1
15430 18442 18441 1
15431 18443 18441 1
15432 18444 18441 1
15433 18445 18444 1
15434 18447 18446 1
15435 18448 18447 1
15436 18449 18447 1
15437 18450 18447 1
15438 18451 18450 1
15439 18453 18452 1
15440 18454 18453 1
15441 18455 18453 1
15442 18456 18453 1
15443 18457 18456 1
15444 18459 18458 1
15445 18460 18459 1
15446 18461 18459 1
15447 18462 18459 1
15448 18463 18462 1
15449 18465 18464 1
15450 18466 18465 1
15451 18467 18465 1
15452 18468 18465 1
15453 18469 18468 1
15454 18471 18470 1
15455 18472 18471 1
15456 18473 18471 1
15457 18474 18471 1
15458 18475 18474 1
15459 18477 18476 1
15460 18478 18477 1
15461 18479 18477 1
15462 18480 18477 1
15463 18481 18480 1
15464 18483 18482 1
15465 18484 18483 1
15466 18485 18483 1
15467 18486 18483 1
15468 18487 18486 1
15469 18489 18488 1
15470 18490 18489 1
15471 18491 18489 1
15472 18492 18489 1
15473 18493 18492 1
15474 18495 18494 1
15475 18496 18495 1
15476 18497 18495 1
15477 18498 18495 1
15478 18499 18498 1
15479 18501 18500 1
15480 18502 18501 1
15481 18503 18501 1
15482 18504 18501 1
15483 18505 18504 1
15484 18507 18506 1
15485 18508 18507 1
15486 18509 18507 1
15487 18510 18507 1
15488 18511 18510 1
15489 18513 18512 1
15490 18514 18513 1
15491 18515 18513 1
15492 18516 18513 1
15493 18517 18516 1
15494 18519 18518 1
15495 18520 18519 1
15496 18521 18519 1
15497 18522 18519 1
15498 18523 18522 1
15499 18525 18524 1
15500 18526 18525 1
15501 18527 18525 1
15502 18528 18525 1
15503 18529 18528 1
15504 18531 18530 1
15505 18532 18531 1
15506 18533 18531 1
15507 18534 18531 1
15508 18535 18534 1
15509 18537 18536 1
15510 18538 18537 1
15511 18539 18537 1
15512 18540 18537 1
15513 18541 18540 1
15514 18543 18542 1
15515 18544 18543 1
15516 18545 18543 1
15517 18546 18543 1
15518 18547 18546 1
15519 18549 18548 1
15520 18550 18549 1
15521 18551 18549 1
15522 18552 18549 1
15523 18553 18552 1
15524 18555 18554 1
15525 18556 18555 1
15526 18557 18555 1
15527 18558 18555 1
15528 18559 18558 1
15529 18561 18560 1
15530 18562 18561 1
15531 18563 18561 1
15532 18564 18561 1
15533 18565 18564 1
15534 18567 18566 1
15535 18568 18567 1
15536 18569 18567 1
15537 18570 18567 1
15538 18571 18570 1
15539 18573 18572 1
15540 18574 18573 1
15541 18575 18573 1
15542 18576 18573 1
15543 18577 18576 1
15544 18579 18578 1
15545 18580 18579 1
15546 18581 18579 1
15547 18582 18579 1
15548 18583 18582 1
15549 18585 18584 1
15550 18586 18585 1
15551 18587 18585 1
15552 18588 18585 1
15553 18589 18588 1
15554 18591 18590 1
15555 18592 18591 1
15556 18593 18591 1
15557 18594 18591 1
15558 18595 18594 1
15559 18597 18596 1
15560 18598 18597 1
15561 18599 18597 1
15562 18600 18597 1
15563 18601 18600 1
15564 18603 18602 1
15565 18604 18603 1
15566 18605 18603 1
15567 18606 18603 1
15568 18607 18606 1
15569 18609 18608 1
15570 18610 18609 1
15571 18611 18609 1
15572 18612 18609 1
15573 18613 18612 1
15574 18615 18614 1
15575 18616 18615 1
15576 18617 18615 1
15577 18618 18615 1
15578 18619 18618 1
15579 18621 18620 1
15580 18622 18621 1
15581 18623 18621 1
15582 18624 18621 1
15583 18625 18624 1
15584 18627 18626 1
15585 18628 18627 1
15586 18629 18627 1
15587 18630 18627 1
15588 18631 18630 1
15589 18633 18632 1
15590 18634 18633 1
15591 18635 18633 1
15592 18636 18633 1
15593 18637 18636 1
15594 18639 18638 1
15595 18640 18639 1
15596 18641 18639 1
15597 18642 18639 1
15598 18643 18642 1
15599 18645 18644 1
15600 18646 18645 1
15601 18647 18645 1
15602 18648 18645 1
15603 18649 18648 1
15604 18651 18650 1
15605 18652 18651 1
15606 18653 18651 1
15607 18654 18651 1
15608 18655 18654 1
15609 18657 18656 1
15610 18658 18657 1
15611 18659 18657 1
15612 18660 18657 1
15613 18661 18660 1
15614 18663 18662 1
15615 18664 18663 1
15616 18665 18663 1
15617 18666 18663 1
15618 18667 18666 1
15619 18669 18668 1
15620 18670 18669 1
15621 18671 18669 1
15622 18672 18669 1
15623 18673 18672 1
15624 18675 18674 1
15625 18676 18675 1
15626 18677 18675 1
15627 18678 18675 1
15628 18679 18678 1
15629 18681 18680 1
15630 18682 18681 1
15631 18683 18681 1
15632 18684 18681 1
15633 18685 18684 1
15634 18687 18686 1
15635 18688 18687 1
15636 18689 18687 1
15637 18690 18687 1
15638 18691 18690 1
15639 18693 18692 1
15640 18694 18693 1
15641 18695 18693 1
15642 18696 18693 1
15643 18697 18696 1
15644 18699 18698 1
15645 18700 18699 1
15646 18701 18699 1
15647 18702 18699 1
15648 18703 18702 1
15649 18705 18704 1
15650 18706 18705 1
15651 18707 18705 1
15652 18708 18705 1
15653 18709 18708 1
15654 18711 18710 1
15655 18712 18711 1
15656 18713 18711 1
15657 18714 18711 1
15658 18715 18714 1
15659 18717 18716 1
15660 18718 18717 1
15661 18719 18717 1
15662 18720 18717 1
15663 18721 18720 1
15664 18723 18722 1
15665 18724 18723 1
15666 18725 18723 1
15667 18726 18723 1
15668 18727 18726 1
15669 18729 18728 1
15670 18730 18729 1
15671 18731 18729 1
15672 18732 18729 1
15673 18733 18732 1
15674 18735 18734 1
15675 18736 18735 1
15676 18737 18735 1
15677 18738 18735 1
15678 18739 18738 1
15679 18741 18740 1
15680 18742 18741 1
15681 18743 18741 1
15682 18744 18741 1
15683 18745 18744 1
15684 18747 18746 1
15685 18748 18747 1
15686 18749 18747 1
15687 18750 18747 1
15688 18751 18750 1
15689 18753 18752 1
15690 18754 18753 1
15691 18755 18753 1
15692 18756 18753 1
15693 18757 18756 1
15694 18759 18758 1
15695 18760 18759 1
15696 18761 18759 1
15697 18762 18759 1
15698 18763 18762 1
15699 18765 18764 1
15700 18766 18765 1
15701 18767 18765 1
15702 18768 18765 1
15703 18769 18768 1
15704 18771 18770 1
15705 18772 18771 1
15706 18773 18771 1
15707 18774 18771 1
15708 18775 18774 1
15709 18777 18776 1
15710 18778 18777 1
15711 18779 18777 1
15712 18780 18777 1
15713 18781 18780 1
@<TRIPOS>SUBSTRUCTURE
      1  XAP              1 ****               0 ****  **** 
      2 rAPP             14 ****               0 ****  **** 
      3 rPPO             65 ****               0 ****  **** 
      4 rPOO            116 ****               0 ****  **** 
      5 rOOO            164 ****               0 ****  **** 
      6 rOOO            212 ****               0 ****  **** 
      7 rOOO            260 ****               0 ****  **** 
      8 rOOT            308 ****               0 ****  **** 
      9 rOTX            353 ****               0 ****  **** 
     10  DNI            371 ****               0 ****  **** 
     11  Cl-            378 ****               0 ****  **** 
     12  Cl-            379 ****               0 ****  **** 
     13  MOH            380 ****               0 ****  **** 
     14  MOH            386 ****               0 ****  **** 
     15  MOH            392 ****               0 ****  **** 
     16  MOH            398 ****               0 ****  **** 
     17  MOH            404 ****               0 ****  **** 
     18  MOH            410 ****               0 ****  **** 
     19  MOH            416 ****               0 ****  **** 
     20  MOH            422 ****               0 ****  **** 
     21  MOH            428 ****               0 ****  **** 
     22  MOH            434 ****               0 ****  **** 
     23  MOH            440 ****               0 ****  **** 
     24  MOH            446 ****               0 ****  **** 
     25  MOH            452 ****               0 ****  **** 
     26  MOH            458 ****               0 ****  **** 
     27  MOH            464 ****               0 ****  **** 
     28  MOH            470 ****               0 ****  **** 
     29  MOH            476 ****               0 ****  **** 
     30  MOH            482 ****               0 ****  **** 
     31  MOH            488 ****               0 ****  **** 
     32  MOH            494 ****               0 ****  **** 
     33  MOH            500 ****               0 ****  **** 
     34  MOH            506 ****               0 ****  **** 
     35  MOH            512 ****               0 ****  **** 
     36  MOH            518 ****               0 ****  **** 
     37  MOH            524 ****               0 ****  **** 
     38  MOH            530 ****               0 ****  **** 
     39  MOH            536 ****               0 ****  **** 
     40  MOH            542 ****               0 ****  **** 
     41  MOH            548 ****               0 ****  **** 
     42  MOH            554 ****               0 ****  **** 
     43  MOH            560 ****               0 ****  **** 
     44  MOH            566 ****               0 ****  **** 
     45  MOH            572 ****               0 ****  **** 
     46  MOH            578 ****               0 ****  **** 
     47  MOH            584 ****               0 ****  **** 
     48  MOH            590 ****               0 ****  **** 
     49  MOH            596 ****               0 ****  **** 
     50  MOH            602 ****               0 ****  **** 
     51  MOH            608 ****               0 ****  **** 
     52  MOH            614 ****               0 ****  **** 
     53  MOH            620 ****               0 ****  **** 
     54  MOH            626 ****               0 ****  **** 
     55  MOH            632 ****               0 ****  **** 
     56  MOH            638 ****               0 ****  **** 
     57  MOH            644 ****               0 ****  **** 
     58  MOH            650 ****               0 ****  **** 
     59  MOH            656 ****               0 ****  **** 
     60  MOH            662 ****               0 ****  **** 
     61  MOH            668 ****               0 ****  **** 
     62  MOH            674 ****               0 ****  **** 
     63  MOH            680 ****               0 ****  **** 
     64  MOH            686 ****               0 ****  **** 
     65  MOH            692 ****               0 ****  **** 
     66  MOH            698 ****               0 ****  **** 
     67  MOH            704 ****               0 ****  **** 
     68  MOH            710 ****               0 ****  **** 
     69  MOH            716 ****               0 ****  **** 
     70  MOH            722 ****               0 ****  **** 
     71  MOH            728 ****               0 ****  **** 
     72  MOH            734 ****               0 ****  **** 
     73  MOH            740 ****               0 ****  **** 
     74  MOH            746 ****               0 ****  **** 
     75  MOH            752 ****               0 ****  **** 
     76  MOH            758 ****               0 ****  **** 
     77  MOH            764 ****               0 ****  **** 
     78  MOH            770 ****               0 ****  **** 
     79  MOH            776 ****               0 ****  **** 
     80  MOH            782 ****               0 ****  **** 
     81  MOH            788 ****               0 ****  **** 
     82  MOH            794 ****               0 ****  **** 
     83  MOH            800 ****               0 ****  **** 
     84  MOH            806 ****               0 ****  **** 
     85  MOH            812 ****               0 ****  **** 
     86  MOH            818 ****               0 ****  **** 
     87  MOH            824 ****               0 ****  **** 
     88  MOH            830 ****               0 ****  **** 
     89  MOH            836 ****               0 ****  **** 
     90  MOH            842 ****               0 ****  **** 
     91  MOH            848 ****               0 ****  **** 
     92  MOH            854 ****               0 ****  **** 
     93  MOH            860 ****               0 ****  **** 
     94  MOH            866 ****               0 ****  **** 
     95  MOH            872 ****               0 ****  **** 
     96  MOH            878 ****               0 ****  **** 
     97  MOH            884 ****               0 ****  **** 
     98  MOH            890 ****               0 ****  **** 
     99  MOH            896 ****               0 ****  **** 
    100  MOH            902 ****               0 ****  **** 
    101  MOH            908 ****               0 ****  **** 
    102  MOH            914 ****               0 ****  **** 
    103  MOH            920 ****               0 ****  **** 
    104  MOH            926 ****               0 ****  **** 
    105  MOH            932 ****               0 ****  **** 
    106  MOH            938 ****               0 ****  **** 
    107  MOH            944 ****               0 ****  **** 
    108  MOH            950 ****               0 ****  **** 
    109  MOH            956 ****               0 ****  **** 
    110  MOH            962 ****               0 ****  **** 
    111  MOH            968 ****               0 ****  **** 
    112  MOH            974 ****               0 ****  **** 
    113  MOH            980 ****               0 ****  **** 
    114  MOH            986 ****               0 ****  **** 
    115  MOH            992 ****               0 ****  **** 
    116  MOH            998 ****               0 ****  **** 
    117  MOH           1004 ****               0 ****  **** 
    118  MOH           1010 ****               0 ****  **** 
    119  MOH           1016 ****               0 ****  **** 
    120  MOH           1022 ****               0 ****  **** 
    121  MOH           1028 ****               0 ****  **** 
    122  MOH           1034 ****               0 ****  **** 
    123  MOH           1040 ****               0 ****  **** 
    124  MOH           1046 ****               0 ****  **** 
    125  MOH           1052 ****               0 ****  **** 
    126  MOH           1058 ****               0 ****  **** 
    127  MOH           1064 ****               0 ****  **** 
    128  MOH           1070 ****               0 ****  **** 
    129  MOH           1076 ****               0 ****  **** 
    130  MOH           1082 ****               0 ****  **** 
    131  MOH           1088 ****               0 ****  **** 
    132  MOH           1094 ****               0 ****  **** 
    133  MOH           1100 ****               0 ****  **** 
    134  MOH           1106 ****               0 ****  **** 
    135  MOH           1112 ****               0 ****  **** 
    136  MOH           1118 ****               0 ****  **** 
    137  MOH           1124 ****               0 ****  **** 
    138  MOH           1130 ****               0 ****  **** 
    139  MOH           1136 ****               0 ****  **** 
    140  MOH           1142 ****               0 ****  **** 
    141  MOH           1148 ****               0 ****  **** 
    142  MOH           1154 ****               0 ****  **** 
    143  MOH           1160 ****               0 ****  **** 
    144  MOH           1166 ****               0 ****  **** 
    145  MOH           1172 ****               0 ****  **** 
    146  MOH           1178 ****               0 ****  **** 
    147  MOH           1184 ****               0 ****  **** 
    148  MOH           1190 ****               0 ****  **** 
    149  MOH           1196 ****               0 ****  **** 
    150  MOH           1202 ****               0 ****  **** 
    151  MOH           1208 ****               0 ****  **** 
    152  MOH           1214 ****               0 ****  **** 
    153  MOH           1220 ****               0 ****  **** 
    154  MOH           1226 ****               0 ****  **** 
    155  MOH           1232 ****               0 ****  **** 
    156  MOH           1238 ****               0 ****  **** 
    157  MOH           1244 ****               0 ****  **** 
    158  MOH           1250 ****               0 ****  **** 
    159  MOH           1256 ****               0 ****  **** 
    160  MOH           1262 ****               0 ****  **** 
    161  MOH           1268 ****               0 ****  **** 
    162  MOH           1274 ****               0 ****  **** 
    163  MOH           1280 ****               0 ****  **** 
    164  MOH           1286 ****               0 ****  **** 
    165  MOH           1292 ****               0 ****  **** 
    166  MOH           1298 ****               0 ****  **** 
    167  MOH           1304 ****               0 ****  **** 
    168  MOH           1310 ****               0 ****  **** 
    169  MOH           1316 ****               0 ****  **** 
    170  MOH           1322 ****               0 ****  **** 
    171  MOH           1328 ****               0 ****  **** 
    172  MOH           1334 ****               0 ****  **** 
    173  MOH           1340 ****               0 ****  **** 
    174  MOH           1346 ****               0 ****  **** 
    175  MOH           1352 ****               0 ****  **** 
    176  MOH           1358 ****               0 ****  **** 
    177  MOH           1364 ****               0 ****  **** 
    178  MOH           1370 ****               0 ****  **** 
    179  MOH           1376 ****               0 ****  **** 
    180  MOH           1382 ****               0 ****  **** 
    181  MOH           1388 ****               0 ****  **** 
    182  MOH           1394 ****               0 ****  **** 
    183  MOH           1400 ****               0 ****  **** 
    184  MOH           1406 ****               0 ****  **** 
    185  MOH           1412 ****               0 ****  **** 
    186  MOH           1418 ****               0 ****  **** 
    187  MOH           1424 ****               0 ****  **** 
    188  MOH           1430 ****               0 ****  **** 
    189  MOH           1436 ****               0 ****  **** 
    190  MOH           1442 ****               0 ****  **** 
    191  MOH           1448 ****               0 ****  **** 
    192  MOH           1454 ****               0 ****  **** 
    193  MOH           1460 ****               0 ****  **** 
    194  MOH           1466 ****               0 ****  **** 
    195  MOH           1472 ****               0 ****  **** 
    196  MOH           1478 ****               0 ****  **** 
    197  MOH           1484 ****               0 ****  **** 
    198  MOH           1490 ****               0 ****  **** 
    199  MOH           1496 ****               0 ****  **** 
    200  MOH           1502 ****               0 ****  **** 
    201  MOH           1508 ****               0 ****  **** 
    202  MOH           1514 ****               0 ****  **** 
    203  MOH           1520 ****               0 ****  **** 
    204  MOH           1526 ****               0 ****  **** 
    205  MOH           1532 ****               0 ****  **** 
    206  MOH           1538 ****               0 ****  **** 
    207  MOH           1544 ****               0 ****  **** 
    208  MOH           1550 ****               0 ****  **** 
    209  MOH           1556 ****               0 ****  **** 
    210  MOH           1562 ****               0 ****  **** 
    211  MOH           1568 ****               0 ****  **** 
    212  MOH           1574 ****               0 ****  **** 
    213  MOH           1580 ****               0 ****  **** 
    214  MOH           1586 ****               0 ****  **** 
    215  MOH           1592 ****               0 ****  **** 
    216  MOH           1598 ****               0 ****  **** 
    217  MOH           1604 ****               0 ****  **** 
    218  MOH           1610 ****               0 ****  **** 
    219  MOH           1616 ****               0 ****  **** 
    220  MOH           1622 ****               0 ****  **** 
    221  MOH           1628 ****               0 ****  **** 
    222  MOH           1634 ****               0 ****  **** 
    223  MOH           1640 ****               0 ****  **** 
    224  MOH           1646 ****               0 ****  **** 
    225  MOH           1652 ****               0 ****  **** 
    226  MOH           1658 ****               0 ****  **** 
    227  MOH           1664 ****               0 ****  **** 
    228  MOH           1670 ****               0 ****  **** 
    229  MOH           1676 ****               0 ****  **** 
    230  MOH           1682 ****               0 ****  **** 
    231  MOH           1688 ****               0 ****  **** 
    232  MOH           1694 ****               0 ****  **** 
    233  MOH           1700 ****               0 ****  **** 
    234  MOH           1706 ****               0 ****  **** 
    235  MOH           1712 ****               0 ****  **** 
    236  MOH           1718 ****               0 ****  **** 
    237  MOH           1724 ****               0 ****  **** 
    238  MOH           1730 ****               0 ****  **** 
    239  MOH           1736 ****               0 ****  **** 
    240  MOH           1742 ****               0 ****  **** 
    241  MOH           1748 ****               0 ****  **** 
    242  MOH           1754 ****               0 ****  **** 
    243  MOH           1760 ****               0 ****  **** 
    244  MOH           1766 ****               0 ****  **** 
    245  MOH           1772 ****               0 ****  **** 
    246  MOH           1778 ****               0 ****  **** 
    247  MOH           1784 ****               0 ****  **** 
    248  MOH           1790 ****               0 ****  **** 
    249  MOH           1796 ****               0 ****  **** 
    250  MOH           1802 ****               0 ****  **** 
    251  MOH           1808 ****               0 ****  **** 
    252  MOH           1814 ****               0 ****  **** 
    253  MOH           1820 ****               0 ****  **** 
    254  MOH           1826 ****               0 ****  **** 
    255  MOH           1832 ****               0 ****  **** 
    256  MOH           1838 ****               0 ****  **** 
    257  MOH           1844 ****               0 ****  **** 
    258  MOH           1850 ****               0 ****  **** 
    259  MOH           1856 ****               0 ****  **** 
    260  MOH           1862 ****               0 ****  **** 
    261  MOH           1868 ****               0 ****  **** 
    262  MOH           1874 ****               0 ****  **** 
    263  MOH           1880 ****               0 ****  **** 
    264  MOH           1886 ****               0 ****  **** 
    265  MOH           1892 ****               0 ****  **** 
    266  MOH           1898 ****               0 ****  **** 
    267  MOH           1904 ****               0 ****  **** 
    268  MOH           1910 ****               0 ****  **** 
    269  MOH           1916 ****               0 ****  **** 
    270  MOH           1922 ****               0 ****  **** 
    271  MOH           1928 ****               0 ****  **** 
    272  MOH           1934 ****               0 ****  **** 
    273  MOH           1940 ****               0 ****  **** 
    274  MOH           1946 ****               0 ****  **** 
    275  MOH           1952 ****               0 ****  **** 
    276  MOH           1958 ****               0 ****  **** 
    277  MOH           1964 ****               0 ****  **** 
    278  MOH           1970 ****               0 ****  **** 
    279  MOH           1976 ****               0 ****  **** 
    280  MOH           1982 ****               0 ****  **** 
    281  MOH           1988 ****               0 ****  **** 
    282  MOH           1994 ****               0 ****  **** 
    283  MOH           2000 ****               0 ****  **** 
    284  MOH           2006 ****               0 ****  **** 
    285  MOH           2012 ****               0 ****  **** 
    286  MOH           2018 ****               0 ****  **** 
    287  MOH           2024 ****               0 ****  **** 
    288  MOH           2030 ****               0 ****  **** 
    289  MOH           2036 ****               0 ****  **** 
    290  MOH           2042 ****               0 ****  **** 
    291  MOH           2048 ****               0 ****  **** 
    292  MOH           2054 ****               0 ****  **** 
    293  MOH           2060 ****               0 ****  **** 
    294  MOH           2066 ****               0 ****  **** 
    295  MOH           2072 ****               0 ****  **** 
    296  MOH           2078 ****               0 ****  **** 
    297  MOH           2084 ****               0 ****  **** 
    298  MOH           2090 ****               0 ****  **** 
    299  MOH           2096 ****               0 ****  **** 
    300  MOH           2102 ****               0 ****  **** 
    301  MOH           2108 ****               0 ****  **** 
    302  MOH           2114 ****               0 ****  **** 
    303  MOH           2120 ****               0 ****  **** 
    304  MOH           2126 ****               0 ****  **** 
    305  MOH           2132 ****               0 ****  **** 
    306  MOH           2138 ****               0 ****  **** 
    307  MOH           2144 ****               0 ****  **** 
    308  MOH           2150 ****               0 ****  **** 
    309  MOH           2156 ****               0 ****  **** 
    310  MOH           2162 ****               0 ****  **** 
    311  MOH           2168 ****               0 ****  **** 
    312  MOH           2174 ****               0 ****  **** 
    313  MOH           2180 ****               0 ****  **** 
    314  MOH           2186 ****               0 ****  **** 
    315  MOH           2192 ****               0 ****  **** 
    316  MOH           2198 ****               0 ****  **** 
    317  MOH           2204 ****               0 ****  **** 
    318  MOH           2210 ****               0 ****  **** 
    319  MOH           2216 ****               0 ****  **** 
    320  MOH           2222 ****               0 ****  **** 
    321  MOH           2228 ****               0 ****  **** 
    322  MOH           2234 ****               0 ****  **** 
    323  MOH           2240 ****               0 ****  **** 
    324  MOH           2246 ****               0 ****  **** 
    325  MOH           2252 ****               0 ****  **** 
    326  MOH           2258 ****               0 ****  **** 
    327  MOH           2264 ****               0 ****  **** 
    328  MOH           2270 ****               0 ****  **** 
    329  MOH           2276 ****               0 ****  **** 
    330  MOH           2282 ****               0 ****  **** 
    331  MOH           2288 ****               0 ****  **** 
    332  MOH           2294 ****               0 ****  **** 
    333  MOH           2300 ****               0 ****  **** 
    334  MOH           2306 ****               0 ****  **** 
    335  MOH           2312 ****               0 ****  **** 
    336  MOH           2318 ****               0 ****  **** 
    337  MOH           2324 ****               0 ****  **** 
    338  MOH           2330 ****               0 ****  **** 
    339  MOH           2336 ****               0 ****  **** 
    340  MOH           2342 ****               0 ****  **** 
    341  MOH           2348 ****               0 ****  **** 
    342  MOH           2354 ****               0 ****  **** 
    343  MOH           2360 ****               0 ****  **** 
    344  MOH           2366 ****               0 ****  **** 
    345  MOH           2372 ****               0 ****  **** 
    346  MOH           2378 ****               0 ****  **** 
    347  MOH           2384 ****               0 ****  **** 
    348  MOH           2390 ****               0 ****  **** 
    349  MOH           2396 ****               0 ****  **** 
    350  MOH           2402 ****               0 ****  **** 
    351  MOH           2408 ****               0 ****  **** 
    352  MOH           2414 ****               0 ****  **** 
    353  MOH           2420 ****               0 ****  **** 
    354  MOH           2426 ****               0 ****  **** 
    355  MOH           2432 ****               0 ****  **** 
    356  MOH           2438 ****               0 ****  **** 
    357  MOH           2444 ****               0 ****  **** 
    358  MOH           2450 ****               0 ****  **** 
    359  MOH           2456 ****               0 ****  **** 
    360  MOH           2462 ****               0 ****  **** 
    361  MOH           2468 ****               0 ****  **** 
    362  MOH           2474 ****               0 ****  **** 
    363  MOH           2480 ****               0 ****  **** 
    364  MOH           2486 ****               0 ****  **** 
    365  MOH           2492 ****               0 ****  **** 
    366  MOH           2498 ****               0 ****  **** 
    367  MOH           2504 ****               0 ****  **** 
    368  MOH           2510 ****               0 ****  **** 
    369  MOH           2516 ****               0 ****  **** 
    370  MOH           2522 ****               0 ****  **** 
    371  MOH           2528 ****               0 ****  **** 
    372  MOH           2534 ****               0 ****  **** 
    373  MOH           2540 ****               0 ****  **** 
    374  MOH           2546 ****               0 ****  **** 
    375  MOH           2552 ****               0 ****  **** 
    376  MOH           2558 ****               0 ****  **** 
    377  MOH           2564 ****               0 ****  **** 
    378  MOH           2570 ****               0 ****  **** 
    379  MOH           2576 ****               0 ****  **** 
    380  MOH           2582 ****               0 ****  **** 
    381  MOH           2588 ****               0 ****  **** 
    382  MOH           2594 ****               0 ****  **** 
    383  MOH           2600 ****               0 ****  **** 
    384  MOH           2606 ****               0 ****  **** 
    385  MOH           2612 ****               0 ****  **** 
    386  MOH           2618 ****               0 ****  **** 
    387  MOH           2624 ****               0 ****  **** 
    388  MOH           2630 ****               0 ****  **** 
    389  MOH           2636 ****               0 ****  **** 
    390  MOH           2642 ****               0 ****  **** 
    391  MOH           2648 ****               0 ****  **** 
    392  MOH           2654 ****               0 ****  **** 
    393  MOH           2660 ****               0 ****  **** 
    394  MOH           2666 ****               0 ****  **** 
    395  MOH           2672 ****               0 ****  **** 
    396  MOH           2678 ****               0 ****  **** 
    397  MOH           2684 ****               0 ****  **** 
    398  MOH           2690 ****               0 ****  **** 
    399  MOH           2696 ****               0 ****  **** 
    400  MOH           2702 ****               0 ****  **** 
    401  MOH           2708 ****               0 ****  **** 
    402  MOH           2714 ****               0 ****  **** 
    403  MOH           2720 ****               0 ****  **** 
    404  MOH           2726 ****               0 ****  **** 
    405  MOH           2732 ****               0 ****  **** 
    406  MOH           2738 ****               0 ****  **** 
    407  MOH           2744 ****               0 ****  **** 
    408  MOH           2750 ****               0 ****  **** 
    409  MOH           2756 ****               0 ****  **** 
    410  MOH           2762 ****               0 ****  **** 
    411  MOH           2768 ****               0 ****  **** 
    412  MOH           2774 ****               0 ****  **** 
    413  MOH           2780 ****               0 ****  **** 
    414  MOH           2786 ****               0 ****  **** 
    415  MOH           2792 ****               0 ****  **** 
    416  MOH           2798 ****               0 ****  **** 
    417  MOH           2804 ****               0 ****  **** 
    418  MOH           2810 ****               0 ****  **** 
    419  MOH           2816 ****               0 ****  **** 
    420  MOH           2822 ****               0 ****  **** 
    421  MOH           2828 ****               0 ****  **** 
    422  MOH           2834 ****               0 ****  **** 
    423  MOH           2840 ****               0 ****  **** 
    424  MOH           2846 ****               0 ****  **** 
    425  MOH           2852 ****               0 ****  **** 
    426  MOH           2858 ****               0 ****  **** 
    427  MOH           2864 ****               0 ****  **** 
    428  MOH           2870 ****               0 ****  **** 
    429  MOH           2876 ****               0 ****  **** 
    430  MOH           2882 ****               0 ****  **** 
    431  MOH           2888 ****               0 ****  **** 
    432  MOH           2894 ****               0 ****  **** 
    433  MOH           2900 ****               0 ****  **** 
    434  MOH           2906 ****               0 ****  **** 
    435  MOH           2912 ****               0 ****  **** 
    436  MOH           2918 ****               0 ****  **** 
    437  MOH           2924 ****               0 ****  **** 
    438  MOH           2930 ****               0 ****  **** 
    439  MOH           2936 ****               0 ****  **** 
    440  MOH           2942 ****               0 ****  **** 
    441  MOH           2948 ****               0 ****  **** 
    442  MOH           2954 ****               0 ****  **** 
    443  MOH           2960 ****               0 ****  **** 
    444  MOH           2966 ****               0 ****  **** 
    445  MOH           2972 ****               0 ****  **** 
    446  MOH           2978 ****               0 ****  **** 
    447  MOH           2984 ****               0 ****  **** 
    448  MOH           2990 ****               0 ****  **** 
    449  MOH           2996 ****               0 ****  **** 
    450  MOH           3002 ****               0 ****  **** 
    451  MOH           3008 ****               0 ****  **** 
    452  MOH           3014 ****               0 ****  **** 
    453  MOH           3020 ****               0 ****  **** 
    454  MOH           3026 ****               0 ****  **** 
    455  MOH           3032 ****               0 ****  **** 
    456  MOH           3038 ****               0 ****  **** 
    457  MOH           3044 ****               0 ****  **** 
    458  MOH           3050 ****               0 ****  **** 
    459  MOH           3056 ****               0 ****  **** 
    460  MOH           3062 ****               0 ****  **** 
    461  MOH           3068 ****               0 ****  **** 
    462  MOH           3074 ****               0 ****  **** 
    463  MOH           3080 ****               0 ****  **** 
    464  MOH           3086 ****               0 ****  **** 
    465  MOH           3092 ****               0 ****  **** 
    466  MOH           3098 ****               0 ****  **** 
    467  MOH           3104 ****               0 ****  **** 
    468  MOH           3110 ****               0 ****  **** 
    469  MOH           3116 ****               0 ****  **** 
    470  MOH           3122 ****               0 ****  **** 
    471  MOH           3128 ****               0 ****  **** 
    472  MOH           3134 ****               0 ****  **** 
    473  MOH           3140 ****               0 ****  **** 
    474  MOH           3146 ****               0 ****  **** 
    475  MOH           3152 ****               0 ****  **** 
    476  MOH           3158 ****               0 ****  **** 
    477  MOH           3164 ****               0 ****  **** 
    478  MOH           3170 ****               0 ****  **** 
    479  MOH           3176 ****               0 ****  **** 
    480  MOH           3182 ****               0 ****  **** 
    481  MOH           3188 ****               0 ****  **** 
    482  MOH           3194 ****               0 ****  **** 
    483  MOH           3200 ****               0 ****  **** 
    484  MOH           3206 ****               0 ****  **** 
    485  MOH           3212 ****               0 ****  **** 
    486  MOH           3218 ****               0 ****  **** 
    487  MOH           3224 ****               0 ****  **** 
    488  MOH           3230 ****               0 ****  **** 
    489  MOH           3236 ****               0 ****  **** 
    490  MOH           3242 ****               0 ****  **** 
    491  MOH           3248 ****               0 ****  **** 
    492  MOH           3254 ****               0 ****  **** 
    493  MOH           3260 ****               0 ****  **** 
    494  MOH           3266 ****               0 ****  **** 
    495  MOH           3272 ****               0 ****  **** 
    496  MOH           3278 ****               0 ****  **** 
    497  MOH           3284 ****               0 ****  **** 
    498  MOH           3290 ****               0 ****  **** 
    499  MOH           3296 ****               0 ****  **** 
    500  MOH           3302 ****               0 ****  **** 
    501  MOH           3308 ****               0 ****  **** 
    502  MOH           3314 ****               0 ****  **** 
    503  MOH           3320 ****               0 ****  **** 
    504  MOH           3326 ****               0 ****  **** 
    505  MOH           3332 ****               0 ****  **** 
    506  MOH           3338 ****               0 ****  **** 
    507  MOH           3344 ****               0 ****  **** 
    508  MOH           3350 ****               0 ****  **** 
    509  MOH           3356 ****               0 ****  **** 
    510  MOH           3362 ****               0 ****  **** 
    511  MOH           3368 ****               0 ****  **** 
    512  MOH           3374 ****               0 ****  **** 
    513  MOH           3380 ****               0 ****  **** 
    514  MOH           3386 ****               0 ****  **** 
    515  MOH           3392 ****               0 ****  **** 
    516  MOH           3398 ****               0 ****  **** 
    517  MOH           3404 ****               0 ****  **** 
    518  MOH           3410 ****               0 ****  **** 
    519  MOH           3416 ****               0 ****  **** 
    520  MOH           3422 ****               0 ****  **** 
    521  MOH           3428 ****               0 ****  **** 
    522  MOH           3434 ****               0 ****  **** 
    523  MOH           3440 ****               0 ****  **** 
    524  MOH           3446 ****               0 ****  **** 
    525  MOH           3452 ****               0 ****  **** 
    526  MOH           3458 ****               0 ****  **** 
    527  MOH           3464 ****               0 ****  **** 
    528  MOH           3470 ****               0 ****  **** 
    529  MOH           3476 ****               0 ****  **** 
    530  MOH           3482 ****               0 ****  **** 
    531  MOH           3488 ****               0 ****  **** 
    532  MOH           3494 ****               0 ****  **** 
    533  MOH           3500 ****               0 ****  **** 
    534  MOH           3506 ****               0 ****  **** 
    535  MOH           3512 ****               0 ****  **** 
    536  MOH           3518 ****               0 ****  **** 
    537  MOH           3524 ****               0 ****  **** 
    538  MOH           3530 ****               0 ****  **** 
    539  MOH           3536 ****               0 ****  **** 
    540  MOH           3542 ****               0 ****  **** 
    541  MOH           3548 ****               0 ****  **** 
    542  MOH           3554 ****               0 ****  **** 
    543  MOH           3560 ****               0 ****  **** 
    544  MOH           3566 ****               0 ****  **** 
    545  MOH           3572 ****               0 ****  **** 
    546  MOH           3578 ****               0 ****  **** 
    547  MOH           3584 ****               0 ****  **** 
    548  MOH           3590 ****               0 ****  **** 
    549  MOH           3596 ****               0 ****  **** 
    550  MOH           3602 ****               0 ****  **** 
    551  MOH           3608 ****               0 ****  **** 
    552  MOH           3614 ****               0 ****  **** 
    553  MOH           3620 ****               0 ****  **** 
    554  MOH           3626 ****               0 ****  **** 
    555  MOH           3632 ****               0 ****  **** 
    556  MOH           3638 ****               0 ****  **** 
    557  MOH           3644 ****               0 ****  **** 
    558  MOH           3650 ****               0 ****  **** 
    559  MOH           3656 ****               0 ****  **** 
    560  MOH           3662 ****               0 ****  **** 
    561  MOH           3668 ****               0 ****  **** 
    562  MOH           3674 ****               0 ****  **** 
    563  MOH           3680 ****               0 ****  **** 
    564  MOH           3686 ****               0 ****  **** 
    565  MOH           3692 ****               0 ****  **** 
    566  MOH           3698 ****               0 ****  **** 
    567  MOH           3704 ****               0 ****  **** 
    568  MOH           3710 ****               0 ****  **** 
    569  MOH           3716 ****               0 ****  **** 
    570  MOH           3722 ****               0 ****  **** 
    571  MOH           3728 ****               0 ****  **** 
    572  MOH           3734 ****               0 ****  **** 
    573  MOH           3740 ****               0 ****  **** 
    574  MOH           3746 ****               0 ****  **** 
    575  MOH           3752 ****               0 ****  **** 
    576  MOH           3758 ****               0 ****  **** 
    577  MOH           3764 ****               0 ****  **** 
    578  MOH           3770 ****               0 ****  **** 
    579  MOH           3776 ****               0 ****  **** 
    580  MOH           3782 ****               0 ****  **** 
    581  MOH           3788 ****               0 ****  **** 
    582  MOH           3794 ****               0 ****  **** 
    583  MOH           3800 ****               0 ****  **** 
    584  MOH           3806 ****               0 ****  **** 
    585  MOH           3812 ****               0 ****  **** 
    586  MOH           3818 ****               0 ****  **** 
    587  MOH           3824 ****               0 ****  **** 
    588  MOH           3830 ****               0 ****  **** 
    589  MOH           3836 ****               0 ****  **** 
    590  MOH           3842 ****               0 ****  **** 
    591  MOH           3848 ****               0 ****  **** 
    592  MOH           3854 ****               0 ****  **** 
    593  MOH           3860 ****               0 ****  **** 
    594  MOH           3866 ****               0 ****  **** 
    595  MOH           3872 ****               0 ****  **** 
    596  MOH           3878 ****               0 ****  **** 
    597  MOH           3884 ****               0 ****  **** 
    598  MOH           3890 ****               0 ****  **** 
    599  MOH           3896 ****               0 ****  **** 
    600  MOH           3902 ****               0 ****  **** 
    601  MOH           3908 ****               0 ****  **** 
    602  MOH           3914 ****               0 ****  **** 
    603  MOH           3920 ****               0 ****  **** 
    604  MOH           3926 ****               0 ****  **** 
    605  MOH           3932 ****               0 ****  **** 
    606  MOH           3938 ****               0 ****  **** 
    607  MOH           3944 ****               0 ****  **** 
    608  MOH           3950 ****               0 ****  **** 
    609  MOH           3956 ****               0 ****  **** 
    610  MOH           3962 ****               0 ****  **** 
    611  MOH           3968 ****               0 ****  **** 
    612  MOH           3974 ****               0 ****  **** 
    613  MOH           3980 ****               0 ****  **** 
    614  MOH           3986 ****               0 ****  **** 
    615  MOH           3992 ****               0 ****  **** 
    616  MOH           3998 ****               0 ****  **** 
    617  MOH           4004 ****               0 ****  **** 
    618  MOH           4010 ****               0 ****  **** 
    619  MOH           4016 ****               0 ****  **** 
    620  MOH           4022 ****               0 ****  **** 
    621  MOH           4028 ****               0 ****  **** 
    622  MOH           4034 ****               0 ****  **** 
    623  MOH           4040 ****               0 ****  **** 
    624  MOH           4046 ****               0 ****  **** 
    625  MOH           4052 ****               0 ****  **** 
    626  MOH           4058 ****               0 ****  **** 
    627  MOH           4064 ****               0 ****  **** 
    628  MOH           4070 ****               0 ****  **** 
    629  MOH           4076 ****               0 ****  **** 
    630  MOH           4082 ****               0 ****  **** 
    631  MOH           4088 ****               0 ****  **** 
    632  MOH           4094 ****               0 ****  **** 
    633  MOH           4100 ****               0 ****  **** 
    634  MOH           4106 ****               0 ****  **** 
    635  MOH           4112 ****               0 ****  **** 
    636  MOH           4118 ****               0 ****  **** 
    637  MOH           4124 ****               0 ****  **** 
    638  MOH           4130 ****               0 ****  **** 
    639  MOH           4136 ****               0 ****  **** 
    640  MOH           4142 ****               0 ****  **** 
    641  MOH           4148 ****               0 ****  **** 
    642  MOH           4154 ****               0 ****  **** 
    643  MOH           4160 ****               0 ****  **** 
    644  MOH           4166 ****               0 ****  **** 
    645  MOH           4172 ****               0 ****  **** 
    646  MOH           4178 ****               0 ****  **** 
    647  MOH           4184 ****               0 ****  **** 
    648  MOH           4190 ****               0 ****  **** 
    649  MOH           4196 ****               0 ****  **** 
    650  MOH           4202 ****               0 ****  **** 
    651  MOH           4208 ****               0 ****  **** 
    652  MOH           4214 ****               0 ****  **** 
    653  MOH           4220 ****               0 ****  **** 
    654  MOH           4226 ****               0 ****  **** 
    655  MOH           4232 ****               0 ****  **** 
    656  MOH           4238 ****               0 ****  **** 
    657  MOH           4244 ****               0 ****  **** 
    658  MOH           4250 ****               0 ****  **** 
    659  MOH           4256 ****               0 ****  **** 
    660  MOH           4262 ****               0 ****  **** 
    661  MOH           4268 ****               0 ****  **** 
    662  MOH           4274 ****               0 ****  **** 
    663  MOH           4280 ****               0 ****  **** 
    664  MOH           4286 ****               0 ****  **** 
    665  MOH           4292 ****               0 ****  **** 
    666  MOH           4298 ****               0 ****  **** 
    667  MOH           4304 ****               0 ****  **** 
    668  MOH           4310 ****               0 ****  **** 
    669  MOH           4316 ****               0 ****  **** 
    670  MOH           4322 ****               0 ****  **** 
    671  MOH           4328 ****               0 ****  **** 
    672  MOH           4334 ****               0 ****  **** 
    673  MOH           4340 ****               0 ****  **** 
    674  MOH           4346 ****               0 ****  **** 
    675  MOH           4352 ****               0 ****  **** 
    676  MOH           4358 ****               0 ****  **** 
    677  MOH           4364 ****               0 ****  **** 
    678  MOH           4370 ****               0 ****  **** 
    679  MOH           4376 ****               0 ****  **** 
    680  MOH           4382 ****               0 ****  **** 
    681  MOH           4388 ****               0 ****  **** 
    682  MOH           4394 ****               0 ****  **** 
    683  MOH           4400 ****               0 ****  **** 
    684  MOH           4406 ****               0 ****  **** 
    685  MOH           4412 ****               0 ****  **** 
    686  MOH           4418 ****               0 ****  **** 
    687  MOH           4424 ****               0 ****  **** 
    688  MOH           4430 ****               0 ****  **** 
    689  MOH           4436 ****               0 ****  **** 
    690  MOH           4442 ****               0 ****  **** 
    691  MOH           4448 ****               0 ****  **** 
    692  MOH           4454 ****               0 ****  **** 
    693  MOH           4460 ****               0 ****  **** 
    694  MOH           4466 ****               0 ****  **** 
    695  MOH           4472 ****               0 ****  **** 
    696  MOH           4478 ****               0 ****  **** 
    697  MOH           4484 ****               0 ****  **** 
    698  MOH           4490 ****               0 ****  **** 
    699  MOH           4496 ****               0 ****  **** 
    700  MOH           4502 ****               0 ****  **** 
    701  MOH           4508 ****               0 ****  **** 
    702  MOH           4514 ****               0 ****  **** 
    703  MOH           4520 ****               0 ****  **** 
    704  MOH           4526 ****               0 ****  **** 
    705  MOH           4532 ****               0 ****  **** 
    706  MOH           4538 ****               0 ****  **** 
    707  MOH           4544 ****               0 ****  **** 
    708  MOH           4550 ****               0 ****  **** 
    709  MOH           4556 ****               0 ****  **** 
    710  MOH           4562 ****               0 ****  **** 
    711  MOH           4568 ****               0 ****  **** 
    712  MOH           4574 ****               0 ****  **** 
    713  MOH           4580 ****               0 ****  **** 
    714  MOH           4586 ****               0 ****  **** 
    715  MOH           4592 ****               0 ****  **** 
    716  MOH           4598 ****               0 ****  **** 
    717  MOH           4604 ****               0 ****  **** 
    718  MOH           4610 ****               0 ****  **** 
    719  MOH           4616 ****               0 ****  **** 
    720  MOH           4622 ****               0 ****  **** 
    721  MOH           4628 ****               0 ****  **** 
    722  MOH           4634 ****               0 ****  **** 
    723  MOH           4640 ****               0 ****  **** 
    724  MOH           4646 ****               0 ****  **** 
    725  MOH           4652 ****               0 ****  **** 
    726  MOH           4658 ****               0 ****  **** 
    727  MOH           4664 ****               0 ****  **** 
    728  MOH           4670 ****               0 ****  **** 
    729  MOH           4676 ****               0 ****  **** 
    730  MOH           4682 ****               0 ****  **** 
    731  MOH           4688 ****               0 ****  **** 
    732  MOH           4694 ****               0 ****  **** 
    733  MOH           4700 ****               0 ****  **** 
    734  MOH           4706 ****               0 ****  **** 
    735  MOH           4712 ****               0 ****  **** 
    736  MOH           4718 ****               0 ****  **** 
    737  MOH           4724 ****               0 ****  **** 
    738  MOH           4730 ****               0 ****  **** 
    739  MOH           4736 ****               0 ****  **** 
    740  MOH           4742 ****               0 ****  **** 
    741  MOH           4748 ****               0 ****  **** 
    742  MOH           4754 ****               0 ****  **** 
    743  MOH           4760 ****               0 ****  **** 
    744  MOH           4766 ****               0 ****  **** 
    745  MOH           4772 ****               0 ****  **** 
    746  MOH           4778 ****               0 ****  **** 
    747  MOH           4784 ****               0 ****  **** 
    748  MOH           4790 ****               0 ****  **** 
    749  MOH           4796 ****               0 ****  **** 
    750  MOH           4802 ****               0 ****  **** 
    751  MOH           4808 ****               0 ****  **** 
    752  MOH           4814 ****               0 ****  **** 
    753  MOH           4820 ****               0 ****  **** 
    754  MOH           4826 ****               0 ****  **** 
    755  MOH           4832 ****               0 ****  **** 
    756  MOH           4838 ****               0 ****  **** 
    757  MOH           4844 ****               0 ****  **** 
    758  MOH           4850 ****               0 ****  **** 
    759  MOH           4856 ****               0 ****  **** 
    760  MOH           4862 ****               0 ****  **** 
    761  MOH           4868 ****               0 ****  **** 
    762  MOH           4874 ****               0 ****  **** 
    763  MOH           4880 ****               0 ****  **** 
    764  MOH           4886 ****               0 ****  **** 
    765  MOH           4892 ****               0 ****  **** 
    766  MOH           4898 ****               0 ****  **** 
    767  MOH           4904 ****               0 ****  **** 
    768  MOH           4910 ****               0 ****  **** 
    769  MOH           4916 ****               0 ****  **** 
    770  MOH           4922 ****               0 ****  **** 
    771  MOH           4928 ****               0 ****  **** 
    772  MOH           4934 ****               0 ****  **** 
    773  MOH           4940 ****               0 ****  **** 
    774  MOH           4946 ****               0 ****  **** 
    775  MOH           4952 ****               0 ****  **** 
    776  MOH           4958 ****               0 ****  **** 
    777  MOH           4964 ****               0 ****  **** 
    778  MOH           4970 ****               0 ****  **** 
    779  MOH           4976 ****               0 ****  **** 
    780  MOH           4982 ****               0 ****  **** 
    781  MOH           4988 ****               0 ****  **** 
    782  MOH           4994 ****               0 ****  **** 
    783  MOH           5000 ****               0 ****  **** 
    784  MOH           5006 ****               0 ****  **** 
    785  MOH           5012 ****               0 ****  **** 
    786  MOH           5018 ****               0 ****  **** 
    787  MOH           5024 ****               0 ****  **** 
    788  MOH           5030 ****               0 ****  **** 
    789  MOH           5036 ****               0 ****  **** 
    790  MOH           5042 ****               0 ****  **** 
    791  MOH           5048 ****               0 ****  **** 
    792  MOH           5054 ****               0 ****  **** 
    793  MOH           5060 ****               0 ****  **** 
    794  MOH           5066 ****               0 ****  **** 
    795  MOH           5072 ****               0 ****  **** 
    796  MOH           5078 ****               0 ****  **** 
    797  MOH           5084 ****               0 ****  **** 
    798  MOH           5090 ****               0 ****  **** 
    799  MOH           5096 ****               0 ****  **** 
    800  MOH           5102 ****               0 ****  **** 
    801  MOH           5108 ****               0 ****  **** 
    802  MOH           5114 ****               0 ****  **** 
    803  MOH           5120 ****               0 ****  **** 
    804  MOH           5126 ****               0 ****  **** 
    805  MOH           5132 ****               0 ****  **** 
    806  MOH           5138 ****               0 ****  **** 
    807  MOH           5144 ****               0 ****  **** 
    808  MOH           5150 ****               0 ****  **** 
    809  MOH           5156 ****               0 ****  **** 
    810  MOH           5162 ****               0 ****  **** 
    811  MOH           5168 ****               0 ****  **** 
    812  MOH           5174 ****               0 ****  **** 
    813  MOH           5180 ****               0 ****  **** 
    814  MOH           5186 ****               0 ****  **** 
    815  MOH           5192 ****               0 ****  **** 
    816  MOH           5198 ****               0 ****  **** 
    817  MOH           5204 ****               0 ****  **** 
    818  MOH           5210 ****               0 ****  **** 
    819  MOH           5216 ****               0 ****  **** 
    820  MOH           5222 ****               0 ****  **** 
    821  MOH           5228 ****               0 ****  **** 
    822  MOH           5234 ****               0 ****  **** 
    823  MOH           5240 ****               0 ****  **** 
    824  MOH           5246 ****               0 ****  **** 
    825  MOH           5252 ****               0 ****  **** 
    826  MOH           5258 ****               0 ****  **** 
    827  MOH           5264 ****               0 ****  **** 
    828  MOH           5270 ****               0 ****  **** 
    829  MOH           5276 ****               0 ****  **** 
    830  MOH           5282 ****               0 ****  **** 
    831  MOH           5288 ****               0 ****  **** 
    832  MOH           5294 ****               0 ****  **** 
    833  MOH           5300 ****               0 ****  **** 
    834  MOH           5306 ****               0 ****  **** 
    835  MOH           5312 ****               0 ****  **** 
    836  MOH           5318 ****               0 ****  **** 
    837  MOH           5324 ****               0 ****  **** 
    838  MOH           5330 ****               0 ****  **** 
    839  MOH           5336 ****               0 ****  **** 
    840  MOH           5342 ****               0 ****  **** 
    841  MOH           5348 ****               0 ****  **** 
    842  MOH           5354 ****               0 ****  **** 
    843  MOH           5360 ****               0 ****  **** 
    844  MOH           5366 ****               0 ****  **** 
    845  MOH           5372 ****               0 ****  **** 
    846  MOH           5378 ****               0 ****  **** 
    847  MOH           5384 ****               0 ****  **** 
    848  MOH           5390 ****               0 ****  **** 
    849  MOH           5396 ****               0 ****  **** 
    850  MOH           5402 ****               0 ****  **** 
    851  MOH           5408 ****               0 ****  **** 
    852  MOH           5414 ****               0 ****  **** 
    853  MOH           5420 ****               0 ****  **** 
    854  MOH           5426 ****               0 ****  **** 
    855  MOH           5432 ****               0 ****  **** 
    856  MOH           5438 ****               0 ****  **** 
    857  MOH           5444 ****               0 ****  **** 
    858  MOH           5450 ****               0 ****  **** 
    859  MOH           5456 ****               0 ****  **** 
    860  MOH           5462 ****               0 ****  **** 
    861  MOH           5468 ****               0 ****  **** 
    862  MOH           5474 ****               0 ****  **** 
    863  MOH           5480 ****               0 ****  **** 
    864  MOH           5486 ****               0 ****  **** 
    865  MOH           5492 ****               0 ****  **** 
    866  MOH           5498 ****               0 ****  **** 
    867  MOH           5504 ****               0 ****  **** 
    868  MOH           5510 ****               0 ****  **** 
    869  MOH           5516 ****               0 ****  **** 
    870  MOH           5522 ****               0 ****  **** 
    871  MOH           5528 ****               0 ****  **** 
    872  MOH           5534 ****               0 ****  **** 
    873  MOH           5540 ****               0 ****  **** 
    874  MOH           5546 ****               0 ****  **** 
    875  MOH           5552 ****               0 ****  **** 
    876  MOH           5558 ****               0 ****  **** 
    877  MOH           5564 ****               0 ****  **** 
    878  MOH           5570 ****               0 ****  **** 
    879  MOH           5576 ****               0 ****  **** 
    880  MOH           5582 ****               0 ****  **** 
    881  MOH           5588 ****               0 ****  **** 
    882  MOH           5594 ****               0 ****  **** 
    883  MOH           5600 ****               0 ****  **** 
    884  MOH           5606 ****               0 ****  **** 
    885  MOH           5612 ****               0 ****  **** 
    886  MOH           5618 ****               0 ****  **** 
    887  MOH           5624 ****               0 ****  **** 
    888  MOH           5630 ****               0 ****  **** 
    889  MOH           5636 ****               0 ****  **** 
    890  MOH           5642 ****               0 ****  **** 
    891  MOH           5648 ****               0 ****  **** 
    892  MOH           5654 ****               0 ****  **** 
    893  MOH           5660 ****               0 ****  **** 
    894  MOH           5666 ****               0 ****  **** 
    895  MOH           5672 ****               0 ****  **** 
    896  MOH           5678 ****               0 ****  **** 
    897  MOH           5684 ****               0 ****  **** 
    898  MOH           5690 ****               0 ****  **** 
    899  MOH           5696 ****               0 ****  **** 
    900  MOH           5702 ****               0 ****  **** 
    901  MOH           5708 ****               0 ****  **** 
    902  MOH           5714 ****               0 ****  **** 
    903  MOH           5720 ****               0 ****  **** 
    904  MOH           5726 ****               0 ****  **** 
    905  MOH           5732 ****               0 ****  **** 
    906  MOH           5738 ****               0 ****  **** 
    907  MOH           5744 ****               0 ****  **** 
    908  MOH           5750 ****               0 ****  **** 
    909  MOH           5756 ****               0 ****  **** 
    910  MOH           5762 ****               0 ****  **** 
    911  MOH           5768 ****               0 ****  **** 
    912  MOH           5774 ****               0 ****  **** 
    913  MOH           5780 ****               0 ****  **** 
    914  MOH           5786 ****               0 ****  **** 
    915  MOH           5792 ****               0 ****  **** 
    916  MOH           5798 ****               0 ****  **** 
    917  MOH           5804 ****               0 ****  **** 
    918  MOH           5810 ****               0 ****  **** 
    919  MOH           5816 ****               0 ****  **** 
    920  MOH           5822 ****               0 ****  **** 
    921  MOH           5828 ****               0 ****  **** 
    922  MOH           5834 ****               0 ****  **** 
    923  MOH           5840 ****               0 ****  **** 
    924  MOH           5846 ****               0 ****  **** 
    925  MOH           5852 ****               0 ****  **** 
    926  MOH           5858 ****               0 ****  **** 
    927  MOH           5864 ****               0 ****  **** 
    928  MOH           5870 ****               0 ****  **** 
    929  MOH           5876 ****               0 ****  **** 
    930  MOH           5882 ****               0 ****  **** 
    931  MOH           5888 ****               0 ****  **** 
    932  MOH           5894 ****               0 ****  **** 
    933  MOH           5900 ****               0 ****  **** 
    934  MOH           5906 ****               0 ****  **** 
    935  MOH           5912 ****               0 ****  **** 
    936  MOH           5918 ****               0 ****  **** 
    937  MOH           5924 ****               0 ****  **** 
    938  MOH           5930 ****               0 ****  **** 
    939  MOH           5936 ****               0 ****  **** 
    940  MOH           5942 ****               0 ****  **** 
    941  MOH           5948 ****               0 ****  **** 
    942  MOH           5954 ****               0 ****  **** 
    943  MOH           5960 ****               0 ****  **** 
    944  MOH           5966 ****               0 ****  **** 
    945  MOH           5972 ****               0 ****  **** 
    946  MOH           5978 ****               0 ****  **** 
    947  MOH           5984 ****               0 ****  **** 
    948  MOH           5990 ****               0 ****  **** 
    949  MOH           5996 ****               0 ****  **** 
    950  MOH           6002 ****               0 ****  **** 
    951  MOH           6008 ****               0 ****  **** 
    952  MOH           6014 ****               0 ****  **** 
    953  MOH           6020 ****               0 ****  **** 
    954  MOH           6026 ****               0 ****  **** 
    955  MOH           6032 ****               0 ****  **** 
    956  MOH           6038 ****               0 ****  **** 
    957  MOH           6044 ****               0 ****  **** 
    958  MOH           6050 ****               0 ****  **** 
    959  MOH           6056 ****               0 ****  **** 
    960  MOH           6062 ****               0 ****  **** 
    961  MOH           6068 ****               0 ****  **** 
    962  MOH           6074 ****               0 ****  **** 
    963  MOH           6080 ****               0 ****  **** 
    964  MOH           6086 ****               0 ****  **** 
    965  MOH           6092 ****               0 ****  **** 
    966  MOH           6098 ****               0 ****  **** 
    967  MOH           6104 ****               0 ****  **** 
    968  MOH           6110 ****               0 ****  **** 
    969  MOH           6116 ****               0 ****  **** 
    970  MOH           6122 ****               0 ****  **** 
    971  MOH           6128 ****               0 ****  **** 
    972  MOH           6134 ****               0 ****  **** 
    973  MOH           6140 ****               0 ****  **** 
    974  MOH           6146 ****               0 ****  **** 
    975  MOH           6152 ****               0 ****  **** 
    976  MOH           6158 ****               0 ****  **** 
    977  MOH           6164 ****               0 ****  **** 
    978  MOH           6170 ****               0 ****  **** 
    979  MOH           6176 ****               0 ****  **** 
    980  MOH           6182 ****               0 ****  **** 
    981  MOH           6188 ****               0 ****  **** 
    982  MOH           6194 ****               0 ****  **** 
    983  MOH           6200 ****               0 ****  **** 
    984  MOH           6206 ****               0 ****  **** 
    985  MOH           6212 ****               0 ****  **** 
    986  MOH           6218 ****               0 ****  **** 
    987  MOH           6224 ****               0 ****  **** 
    988  MOH           6230 ****               0 ****  **** 
    989  MOH           6236 ****               0 ****  **** 
    990  MOH           6242 ****               0 ****  **** 
    991  MOH           6248 ****               0 ****  **** 
    992  MOH           6254 ****               0 ****  **** 
    993  MOH           6260 ****               0 ****  **** 
    994  MOH           6266 ****               0 ****  **** 
    995  MOH           6272 ****               0 ****  **** 
    996  MOH           6278 ****               0 ****  **** 
    997  MOH           6284 ****               0 ****  **** 
    998  MOH           6290 ****               0 ****  **** 
    999  MOH           6296 ****               0 ****  **** 
   1000  MOH           6302 ****               0 ****  **** 
   1001  MOH           6308 ****               0 ****  **** 
   1002  MOH           6314 ****               0 ****  **** 
   1003  MOH           6320 ****               0 ****  **** 
   1004  MOH           6326 ****               0 ****  **** 
   1005  MOH           6332 ****               0 ****  **** 
   1006  MOH           6338 ****               0 ****  **** 
   1007  MOH           6344 ****               0 ****  **** 
   1008  MOH           6350 ****               0 ****  **** 
   1009  MOH           6356 ****               0 ****  **** 
   1010  MOH           6362 ****               0 ****  **** 
   1011  MOH           6368 ****               0 ****  **** 
   1012  MOH           6374 ****               0 ****  **** 
   1013  MOH           6380 ****               0 ****  **** 
   1014  MOH           6386 ****               0 ****  **** 
   1015  MOH           6392 ****               0 ****  **** 
   1016  MOH           6398 ****               0 ****  **** 
   1017  MOH           6404 ****               0 ****  **** 
   1018  MOH           6410 ****               0 ****  **** 
   1019  MOH           6416 ****               0 ****  **** 
   1020  MOH           6422 ****               0 ****  **** 
   1021  MOH           6428 ****               0 ****  **** 
   1022  MOH           6434 ****               0 ****  **** 
   1023  MOH           6440 ****               0 ****  **** 
   1024  MOH           6446 ****               0 ****  **** 
   1025  MOH           6452 ****               0 ****  **** 
   1026  MOH           6458 ****               0 ****  **** 
   1027  MOH           6464 ****               0 ****  **** 
   1028  MOH           6470 ****               0 ****  **** 
   1029  MOH           6476 ****               0 ****  **** 
   1030  MOH           6482 ****               0 ****  **** 
   1031  MOH           6488 ****               0 ****  **** 
   1032  MOH           6494 ****               0 ****  **** 
   1033  MOH           6500 ****               0 ****  **** 
   1034  MOH           6506 ****               0 ****  **** 
   1035  MOH           6512 ****               0 ****  **** 
   1036  MOH           6518 ****               0 ****  **** 
   1037  MOH           6524 ****               0 ****  **** 
   1038  MOH           6530 ****               0 ****  **** 
   1039  MOH           6536 ****               0 ****  **** 
   1040  MOH           6542 ****               0 ****  **** 
   1041  MOH           6548 ****               0 ****  **** 
   1042  MOH           6554 ****               0 ****  **** 
   1043  MOH           6560 ****               0 ****  **** 
   1044  MOH           6566 ****               0 ****  **** 
   1045  MOH           6572 ****               0 ****  **** 
   1046  MOH           6578 ****               0 ****  **** 
   1047  MOH           6584 ****               0 ****  **** 
   1048  MOH           6590 ****               0 ****  **** 
   1049  MOH           6596 ****               0 ****  **** 
   1050  MOH           6602 ****               0 ****  **** 
   1051  MOH           6608 ****               0 ****  **** 
   1052  MOH           6614 ****               0 ****  **** 
   1053  MOH           6620 ****               0 ****  **** 
   1054  MOH           6626 ****               0 ****  **** 
   1055  MOH           6632 ****               0 ****  **** 
   1056  MOH           6638 ****               0 ****  **** 
   1057  MOH           6644 ****               0 ****  **** 
   1058  MOH           6650 ****               0 ****  **** 
   1059  MOH           6656 ****               0 ****  **** 
   1060  MOH           6662 ****               0 ****  **** 
   1061  MOH           6668 ****               0 ****  **** 
   1062  MOH           6674 ****               0 ****  **** 
   1063  MOH           6680 ****               0 ****  **** 
   1064  MOH           6686 ****               0 ****  **** 
   1065  MOH           6692 ****               0 ****  **** 
   1066  MOH           6698 ****               0 ****  **** 
   1067  MOH           6704 ****               0 ****  **** 
   1068  MOH           6710 ****               0 ****  **** 
   1069  MOH           6716 ****               0 ****  **** 
   1070  MOH           6722 ****               0 ****  **** 
   1071  MOH           6728 ****               0 ****  **** 
   1072  MOH           6734 ****               0 ****  **** 
   1073  MOH           6740 ****               0 ****  **** 
   1074  MOH           6746 ****               0 ****  **** 
   1075  MOH           6752 ****               0 ****  **** 
   1076  MOH           6758 ****               0 ****  **** 
   1077  MOH           6764 ****               0 ****  **** 
   1078  MOH           6770 ****               0 ****  **** 
   1079  MOH           6776 ****               0 ****  **** 
   1080  MOH           6782 ****               0 ****  **** 
   1081  MOH           6788 ****               0 ****  **** 
   1082  MOH           6794 ****               0 ****  **** 
   1083  MOH           6800 ****               0 ****  **** 
   1084  MOH           6806 ****               0 ****  **** 
   1085  MOH           6812 ****               0 ****  **** 
   1086  MOH           6818 ****               0 ****  **** 
   1087  MOH           6824 ****               0 ****  **** 
   1088  MOH           6830 ****               0 ****  **** 
   1089  MOH           6836 ****               0 ****  **** 
   1090  MOH           6842 ****               0 ****  **** 
   1091  MOH           6848 ****               0 ****  **** 
   1092  MOH           6854 ****               0 ****  **** 
   1093  MOH           6860 ****               0 ****  **** 
   1094  MOH           6866 ****               0 ****  **** 
   1095  MOH           6872 ****               0 ****  **** 
   1096  MOH           6878 ****               0 ****  **** 
   1097  MOH           6884 ****               0 ****  **** 
   1098  MOH           6890 ****               0 ****  **** 
   1099  MOH           6896 ****               0 ****  **** 
   1100  MOH           6902 ****               0 ****  **** 
   1101  MOH           6908 ****               0 ****  **** 
   1102  MOH           6914 ****               0 ****  **** 
   1103  MOH           6920 ****               0 ****  **** 
   1104  MOH           6926 ****               0 ****  **** 
   1105  MOH           6932 ****               0 ****  **** 
   1106  MOH           6938 ****               0 ****  **** 
   1107  MOH           6944 ****               0 ****  **** 
   1108  MOH           6950 ****               0 ****  **** 
   1109  MOH           6956 ****               0 ****  **** 
   1110  MOH           6962 ****               0 ****  **** 
   1111  MOH           6968 ****               0 ****  **** 
   1112  MOH           6974 ****               0 ****  **** 
   1113  MOH           6980 ****               0 ****  **** 
   1114  MOH           6986 ****               0 ****  **** 
   1115  MOH           6992 ****               0 ****  **** 
   1116  MOH           6998 ****               0 ****  **** 
   1117  MOH           7004 ****               0 ****  **** 
   1118  MOH           7010 ****               0 ****  **** 
   1119  MOH           7016 ****               0 ****  **** 
   1120  MOH           7022 ****               0 ****  **** 
   1121  MOH           7028 ****               0 ****  **** 
   1122  MOH           7034 ****               0 ****  **** 
   1123  MOH           7040 ****               0 ****  **** 
   1124  MOH           7046 ****               0 ****  **** 
   1125  MOH           7052 ****               0 ****  **** 
   1126  MOH           7058 ****               0 ****  **** 
   1127  MOH           7064 ****               0 ****  **** 
   1128  MOH           7070 ****               0 ****  **** 
   1129  MOH           7076 ****               0 ****  **** 
   1130  MOH           7082 ****               0 ****  **** 
   1131  MOH           7088 ****               0 ****  **** 
   1132  MOH           7094 ****               0 ****  **** 
   1133  MOH           7100 ****               0 ****  **** 
   1134  MOH           7106 ****               0 ****  **** 
   1135  MOH           7112 ****               0 ****  **** 
   1136  MOH           7118 ****               0 ****  **** 
   1137  MOH           7124 ****               0 ****  **** 
   1138  MOH           7130 ****               0 ****  **** 
   1139  MOH           7136 ****               0 ****  **** 
   1140  MOH           7142 ****               0 ****  **** 
   1141  MOH           7148 ****               0 ****  **** 
   1142  MOH           7154 ****               0 ****  **** 
   1143  MOH           7160 ****               0 ****  **** 
   1144  MOH           7166 ****               0 ****  **** 
   1145  MOH           7172 ****               0 ****  **** 
   1146  MOH           7178 ****               0 ****  **** 
   1147  MOH           7184 ****               0 ****  **** 
   1148  MOH           7190 ****               0 ****  **** 
   1149  MOH           7196 ****               0 ****  **** 
   1150  MOH           7202 ****               0 ****  **** 
   1151  MOH           7208 ****               0 ****  **** 
   1152  MOH           7214 ****               0 ****  **** 
   1153  MOH           7220 ****               0 ****  **** 
   1154  MOH           7226 ****               0 ****  **** 
   1155  MOH           7232 ****               0 ****  **** 
   1156  MOH           7238 ****               0 ****  **** 
   1157  MOH           7244 ****               0 ****  **** 
   1158  MOH           7250 ****               0 ****  **** 
   1159  MOH           7256 ****               0 ****  **** 
   1160  MOH           7262 ****               0 ****  **** 
   1161  MOH           7268 ****               0 ****  **** 
   1162  MOH           7274 ****               0 ****  **** 
   1163  MOH           7280 ****               0 ****  **** 
   1164  MOH           7286 ****               0 ****  **** 
   1165  MOH           7292 ****               0 ****  **** 
   1166  MOH           7298 ****               0 ****  **** 
   1167  MOH           7304 ****               0 ****  **** 
   1168  MOH           7310 ****               0 ****  **** 
   1169  MOH           7316 ****               0 ****  **** 
   1170  MOH           7322 ****               0 ****  **** 
   1171  MOH           7328 ****               0 ****  **** 
   1172  MOH           7334 ****               0 ****  **** 
   1173  MOH           7340 ****               0 ****  **** 
   1174  MOH           7346 ****               0 ****  **** 
   1175  MOH           7352 ****               0 ****  **** 
   1176  MOH           7358 ****               0 ****  **** 
   1177  MOH           7364 ****               0 ****  **** 
   1178  MOH           7370 ****               0 ****  **** 
   1179  MOH           7376 ****               0 ****  **** 
   1180  MOH           7382 ****               0 ****  **** 
   1181  MOH           7388 ****               0 ****  **** 
   1182  MOH           7394 ****               0 ****  **** 
   1183  MOH           7400 ****               0 ****  **** 
   1184  MOH           7406 ****               0 ****  **** 
   1185  MOH           7412 ****               0 ****  **** 
   1186  MOH           7418 ****               0 ****  **** 
   1187  MOH           7424 ****               0 ****  **** 
   1188  MOH           7430 ****               0 ****  **** 
   1189  MOH           7436 ****               0 ****  **** 
   1190  MOH           7442 ****               0 ****  **** 
   1191  MOH           7448 ****               0 ****  **** 
   1192  MOH           7454 ****               0 ****  **** 
   1193  MOH           7460 ****               0 ****  **** 
   1194  MOH           7466 ****               0 ****  **** 
   1195  MOH           7472 ****               0 ****  **** 
   1196  MOH           7478 ****               0 ****  **** 
   1197  MOH           7484 ****               0 ****  **** 
   1198  MOH           7490 ****               0 ****  **** 
   1199  MOH           7496 ****               0 ****  **** 
   1200  MOH           7502 ****               0 ****  **** 
   1201  MOH           7508 ****               0 ****  **** 
   1202  MOH           7514 ****               0 ****  **** 
   1203  MOH           7520 ****               0 ****  **** 
   1204  MOH           7526 ****               0 ****  **** 
   1205  MOH           7532 ****               0 ****  **** 
   1206  MOH           7538 ****               0 ****  **** 
   1207  MOH           7544 ****               0 ****  **** 
   1208  MOH           7550 ****               0 ****  **** 
   1209  MOH           7556 ****               0 ****  **** 
   1210  MOH           7562 ****               0 ****  **** 
   1211  MOH           7568 ****               0 ****  **** 
   1212  MOH           7574 ****               0 ****  **** 
   1213  MOH           7580 ****               0 ****  **** 
   1214  MOH           7586 ****               0 ****  **** 
   1215  MOH           7592 ****               0 ****  **** 
   1216  MOH           7598 ****               0 ****  **** 
   1217  MOH           7604 ****               0 ****  **** 
   1218  MOH           7610 ****               0 ****  **** 
   1219  MOH           7616 ****               0 ****  **** 
   1220  MOH           7622 ****               0 ****  **** 
   1221  MOH           7628 ****               0 ****  **** 
   1222  MOH           7634 ****               0 ****  **** 
   1223  MOH           7640 ****               0 ****  **** 
   1224  MOH           7646 ****               0 ****  **** 
   1225  MOH           7652 ****               0 ****  **** 
   1226  MOH           7658 ****               0 ****  **** 
   1227  MOH           7664 ****               0 ****  **** 
   1228  MOH           7670 ****               0 ****  **** 
   1229  MOH           7676 ****               0 ****  **** 
   1230  MOH           7682 ****               0 ****  **** 
   1231  MOH           7688 ****               0 ****  **** 
   1232  MOH           7694 ****               0 ****  **** 
   1233  MOH           7700 ****               0 ****  **** 
   1234  MOH           7706 ****               0 ****  **** 
   1235  MOH           7712 ****               0 ****  **** 
   1236  MOH           7718 ****               0 ****  **** 
   1237  MOH           7724 ****               0 ****  **** 
   1238  MOH           7730 ****               0 ****  **** 
   1239  MOH           7736 ****               0 ****  **** 
   1240  MOH           7742 ****               0 ****  **** 
   1241  MOH           7748 ****               0 ****  **** 
   1242  MOH           7754 ****               0 ****  **** 
   1243  MOH           7760 ****               0 ****  **** 
   1244  MOH           7766 ****               0 ****  **** 
   1245  MOH           7772 ****               0 ****  **** 
   1246  MOH           7778 ****               0 ****  **** 
   1247  MOH           7784 ****               0 ****  **** 
   1248  MOH           7790 ****               0 ****  **** 
   1249  MOH           7796 ****               0 ****  **** 
   1250  MOH           7802 ****               0 ****  **** 
   1251  MOH           7808 ****               0 ****  **** 
   1252  MOH           7814 ****               0 ****  **** 
   1253  MOH           7820 ****               0 ****  **** 
   1254  MOH           7826 ****               0 ****  **** 
   1255  MOH           7832 ****               0 ****  **** 
   1256  MOH           7838 ****               0 ****  **** 
   1257  MOH           7844 ****               0 ****  **** 
   1258  MOH           7850 ****               0 ****  **** 
   1259  MOH           7856 ****               0 ****  **** 
   1260  MOH           7862 ****               0 ****  **** 
   1261  MOH           7868 ****               0 ****  **** 
   1262  MOH           7874 ****               0 ****  **** 
   1263  MOH           7880 ****               0 ****  **** 
   1264  MOH           7886 ****               0 ****  **** 
   1265  MOH           7892 ****               0 ****  **** 
   1266  MOH           7898 ****               0 ****  **** 
   1267  MOH           7904 ****               0 ****  **** 
   1268  MOH           7910 ****               0 ****  **** 
   1269  MOH           7916 ****               0 ****  **** 
   1270  MOH           7922 ****               0 ****  **** 
   1271  MOH           7928 ****               0 ****  **** 
   1272  MOH           7934 ****               0 ****  **** 
   1273  MOH           7940 ****               0 ****  **** 
   1274  MOH           7946 ****               0 ****  **** 
   1275  MOH           7952 ****               0 ****  **** 
   1276  MOH           7958 ****               0 ****  **** 
   1277  MOH           7964 ****               0 ****  **** 
   1278  MOH           7970 ****               0 ****  **** 
   1279  MOH           7976 ****               0 ****  **** 
   1280  MOH           7982 ****               0 ****  **** 
   1281  MOH           7988 ****               0 ****  **** 
   1282  MOH           7994 ****               0 ****  **** 
   1283  MOH           8000 ****               0 ****  **** 
   1284  MOH           8006 ****               0 ****  **** 
   1285  MOH           8012 ****               0 ****  **** 
   1286  MOH           8018 ****               0 ****  **** 
   1287  MOH           8024 ****               0 ****  **** 
   1288  MOH           8030 ****               0 ****  **** 
   1289  MOH           8036 ****               0 ****  **** 
   1290  MOH           8042 ****               0 ****  **** 
   1291  MOH           8048 ****               0 ****  **** 
   1292  MOH           8054 ****               0 ****  **** 
   1293  MOH           8060 ****               0 ****  **** 
   1294  MOH           8066 ****               0 ****  **** 
   1295  MOH           8072 ****               0 ****  **** 
   1296  MOH           8078 ****               0 ****  **** 
   1297  MOH           8084 ****               0 ****  **** 
   1298  MOH           8090 ****               0 ****  **** 
   1299  MOH           8096 ****               0 ****  **** 
   1300  MOH           8102 ****               0 ****  **** 
   1301  MOH           8108 ****               0 ****  **** 
   1302  MOH           8114 ****               0 ****  **** 
   1303  MOH           8120 ****               0 ****  **** 
   1304  MOH           8126 ****               0 ****  **** 
   1305  MOH           8132 ****               0 ****  **** 
   1306  MOH           8138 ****               0 ****  **** 
   1307  MOH           8144 ****               0 ****  **** 
   1308  MOH           8150 ****               0 ****  **** 
   1309  MOH           8156 ****               0 ****  **** 
   1310  MOH           8162 ****               0 ****  **** 
   1311  MOH           8168 ****               0 ****  **** 
   1312  MOH           8174 ****               0 ****  **** 
   1313  MOH           8180 ****               0 ****  **** 
   1314  MOH           8186 ****               0 ****  **** 
   1315  MOH           8192 ****               0 ****  **** 
   1316  MOH           8198 ****               0 ****  **** 
   1317  MOH           8204 ****               0 ****  **** 
   1318  MOH           8210 ****               0 ****  **** 
   1319  MOH           8216 ****               0 ****  **** 
   1320  MOH           8222 ****               0 ****  **** 
   1321  MOH           8228 ****               0 ****  **** 
   1322  MOH           8234 ****               0 ****  **** 
   1323  MOH           8240 ****               0 ****  **** 
   1324  MOH           8246 ****               0 ****  **** 
   1325  MOH           8252 ****               0 ****  **** 
   1326  MOH           8258 ****               0 ****  **** 
   1327  MOH           8264 ****               0 ****  **** 
   1328  MOH           8270 ****               0 ****  **** 
   1329  MOH           8276 ****               0 ****  **** 
   1330  MOH           8282 ****               0 ****  **** 
   1331  MOH           8288 ****               0 ****  **** 
   1332  MOH           8294 ****               0 ****  **** 
   1333  MOH           8300 ****               0 ****  **** 
   1334  MOH           8306 ****               0 ****  **** 
   1335  MOH           8312 ****               0 ****  **** 
   1336  MOH           8318 ****               0 ****  **** 
   1337  MOH           8324 ****               0 ****  **** 
   1338  MOH           8330 ****               0 ****  **** 
   1339  MOH           8336 ****               0 ****  **** 
   1340  MOH           8342 ****               0 ****  **** 
   1341  MOH           8348 ****               0 ****  **** 
   1342  MOH           8354 ****               0 ****  **** 
   1343  MOH           8360 ****               0 ****  **** 
   1344  MOH           8366 ****               0 ****  **** 
   1345  MOH           8372 ****               0 ****  **** 
   1346  MOH           8378 ****               0 ****  **** 
   1347  MOH           8384 ****               0 ****  **** 
   1348  MOH           8390 ****               0 ****  **** 
   1349  MOH           8396 ****               0 ****  **** 
   1350  MOH           8402 ****               0 ****  **** 
   1351  MOH           8408 ****               0 ****  **** 
   1352  MOH           8414 ****               0 ****  **** 
   1353  MOH           8420 ****               0 ****  **** 
   1354  MOH           8426 ****               0 ****  **** 
   1355  MOH           8432 ****               0 ****  **** 
   1356  MOH           8438 ****               0 ****  **** 
   1357  MOH           8444 ****               0 ****  **** 
   1358  MOH           8450 ****               0 ****  **** 
   1359  MOH           8456 ****               0 ****  **** 
   1360  MOH           8462 ****               0 ****  **** 
   1361  MOH           8468 ****               0 ****  **** 
   1362  MOH           8474 ****               0 ****  **** 
   1363  MOH           8480 ****               0 ****  **** 
   1364  MOH           8486 ****               0 ****  **** 
   1365  MOH           8492 ****               0 ****  **** 
   1366  MOH           8498 ****               0 ****  **** 
   1367  MOH           8504 ****               0 ****  **** 
   1368  MOH           8510 ****               0 ****  **** 
   1369  MOH           8516 ****               0 ****  **** 
   1370  MOH           8522 ****               0 ****  **** 
   1371  MOH           8528 ****               0 ****  **** 
   1372  MOH           8534 ****               0 ****  **** 
   1373  MOH           8540 ****               0 ****  **** 
   1374  MOH           8546 ****               0 ****  **** 
   1375  MOH           8552 ****               0 ****  **** 
   1376  MOH           8558 ****               0 ****  **** 
   1377  MOH           8564 ****               0 ****  **** 
   1378  MOH           8570 ****               0 ****  **** 
   1379  MOH           8576 ****               0 ****  **** 
   1380  MOH           8582 ****               0 ****  **** 
   1381  MOH           8588 ****               0 ****  **** 
   1382  MOH           8594 ****               0 ****  **** 
   1383  MOH           8600 ****               0 ****  **** 
   1384  MOH           8606 ****               0 ****  **** 
   1385  MOH           8612 ****               0 ****  **** 
   1386  MOH           8618 ****               0 ****  **** 
   1387  MOH           8624 ****               0 ****  **** 
   1388  MOH           8630 ****               0 ****  **** 
   1389  MOH           8636 ****               0 ****  **** 
   1390  MOH           8642 ****               0 ****  **** 
   1391  MOH           8648 ****               0 ****  **** 
   1392  MOH           8654 ****               0 ****  **** 
   1393  MOH           8660 ****               0 ****  **** 
   1394  MOH           8666 ****               0 ****  **** 
   1395  MOH           8672 ****               0 ****  **** 
   1396  MOH           8678 ****               0 ****  **** 
   1397  MOH           8684 ****               0 ****  **** 
   1398  MOH           8690 ****               0 ****  **** 
   1399  MOH           8696 ****               0 ****  **** 
   1400  MOH           8702 ****               0 ****  **** 
   1401  MOH           8708 ****               0 ****  **** 
   1402  MOH           8714 ****               0 ****  **** 
   1403  MOH           8720 ****               0 ****  **** 
   1404  MOH           8726 ****               0 ****  **** 
   1405  MOH           8732 ****               0 ****  **** 
   1406  MOH           8738 ****               0 ****  **** 
   1407  MOH           8744 ****               0 ****  **** 
   1408  MOH           8750 ****               0 ****  **** 
   1409  MOH           8756 ****               0 ****  **** 
   1410  MOH           8762 ****               0 ****  **** 
   1411  MOH           8768 ****               0 ****  **** 
   1412  MOH           8774 ****               0 ****  **** 
   1413  MOH           8780 ****               0 ****  **** 
   1414  MOH           8786 ****               0 ****  **** 
   1415  MOH           8792 ****               0 ****  **** 
   1416  MOH           8798 ****               0 ****  **** 
   1417  MOH           8804 ****               0 ****  **** 
   1418  MOH           8810 ****               0 ****  **** 
   1419  MOH           8816 ****               0 ****  **** 
   1420  MOH           8822 ****               0 ****  **** 
   1421  MOH           8828 ****               0 ****  **** 
   1422  MOH           8834 ****               0 ****  **** 
   1423  MOH           8840 ****               0 ****  **** 
   1424  MOH           8846 ****               0 ****  **** 
   1425  MOH           8852 ****               0 ****  **** 
   1426  MOH           8858 ****               0 ****  **** 
   1427  MOH           8864 ****               0 ****  **** 
   1428  MOH           8870 ****               0 ****  **** 
   1429  MOH           8876 ****               0 ****  **** 
   1430  MOH           8882 ****               0 ****  **** 
   1431  MOH           8888 ****               0 ****  **** 
   1432  MOH           8894 ****               0 ****  **** 
   1433  MOH           8900 ****               0 ****  **** 
   1434  MOH           8906 ****               0 ****  **** 
   1435  MOH           8912 ****               0 ****  **** 
   1436  MOH           8918 ****               0 ****  **** 
   1437  MOH           8924 ****               0 ****  **** 
   1438  MOH           8930 ****               0 ****  **** 
   1439  MOH           8936 ****               0 ****  **** 
   1440  MOH           8942 ****               0 ****  **** 
   1441  MOH           8948 ****               0 ****  **** 
   1442  MOH           8954 ****               0 ****  **** 
   1443  MOH           8960 ****               0 ****  **** 
   1444  MOH           8966 ****               0 ****  **** 
   1445  MOH           8972 ****               0 ****  **** 
   1446  MOH           8978 ****               0 ****  **** 
   1447  MOH           8984 ****               0 ****  **** 
   1448  MOH           8990 ****               0 ****  **** 
   1449  MOH           8996 ****               0 ****  **** 
   1450  MOH           9002 ****               0 ****  **** 
   1451  MOH           9008 ****               0 ****  **** 
   1452  MOH           9014 ****               0 ****  **** 
   1453  MOH           9020 ****               0 ****  **** 
   1454  MOH           9026 ****               0 ****  **** 
   1455  MOH           9032 ****               0 ****  **** 
   1456  MOH           9038 ****               0 ****  **** 
   1457  MOH           9044 ****               0 ****  **** 
   1458  MOH           9050 ****               0 ****  **** 
   1459  MOH           9056 ****               0 ****  **** 
   1460  MOH           9062 ****               0 ****  **** 
   1461  MOH           9068 ****               0 ****  **** 
   1462  MOH           9074 ****               0 ****  **** 
   1463  MOH           9080 ****               0 ****  **** 
   1464  MOH           9086 ****               0 ****  **** 
   1465  MOH           9092 ****               0 ****  **** 
   1466  MOH           9098 ****               0 ****  **** 
   1467  MOH           9104 ****               0 ****  **** 
   1468  MOH           9110 ****               0 ****  **** 
   1469  MOH           9116 ****               0 ****  **** 
   1470  MOH           9122 ****               0 ****  **** 
   1471  MOH           9128 ****               0 ****  **** 
   1472  MOH           9134 ****               0 ****  **** 
   1473  MOH           9140 ****               0 ****  **** 
   1474  MOH           9146 ****               0 ****  **** 
   1475  MOH           9152 ****               0 ****  **** 
   1476  MOH           9158 ****               0 ****  **** 
   1477  MOH           9164 ****               0 ****  **** 
   1478  MOH           9170 ****               0 ****  **** 
   1479  MOH           9176 ****               0 ****  **** 
   1480  MOH           9182 ****               0 ****  **** 
   1481  MOH           9188 ****               0 ****  **** 
   1482  MOH           9194 ****               0 ****  **** 
   1483  MOH           9200 ****               0 ****  **** 
   1484  MOH           9206 ****               0 ****  **** 
   1485  MOH           9212 ****               0 ****  **** 
   1486  MOH           9218 ****               0 ****  **** 
   1487  MOH           9224 ****               0 ****  **** 
   1488  MOH           9230 ****               0 ****  **** 
   1489  MOH           9236 ****               0 ****  **** 
   1490  MOH           9242 ****               0 ****  **** 
   1491  MOH           9248 ****               0 ****  **** 
   1492  MOH           9254 ****               0 ****  **** 
   1493  MOH           9260 ****               0 ****  **** 
   1494  MOH           9266 ****               0 ****  **** 
   1495  MOH           9272 ****               0 ****  **** 
   1496  MOH           9278 ****               0 ****  **** 
   1497  MOH           9284 ****               0 ****  **** 
   1498  MOH           9290 ****               0 ****  **** 
   1499  MOH           9296 ****               0 ****  **** 
   1500  MOH           9302 ****               0 ****  **** 
   1501  MOH           9308 ****               0 ****  **** 
   1502  MOH           9314 ****               0 ****  **** 
   1503  MOH           9320 ****               0 ****  **** 
   1504  MOH           9326 ****               0 ****  **** 
   1505  MOH           9332 ****               0 ****  **** 
   1506  MOH           9338 ****               0 ****  **** 
   1507  MOH           9344 ****               0 ****  **** 
   1508  MOH           9350 ****               0 ****  **** 
   1509  MOH           9356 ****               0 ****  **** 
   1510  MOH           9362 ****               0 ****  **** 
   1511  MOH           9368 ****               0 ****  **** 
   1512  MOH           9374 ****               0 ****  **** 
   1513  MOH           9380 ****               0 ****  **** 
   1514  MOH           9386 ****               0 ****  **** 
   1515  MOH           9392 ****               0 ****  **** 
   1516  MOH           9398 ****               0 ****  **** 
   1517  MOH           9404 ****               0 ****  **** 
   1518  MOH           9410 ****               0 ****  **** 
   1519  MOH           9416 ****               0 ****  **** 
   1520  MOH           9422 ****               0 ****  **** 
   1521  MOH           9428 ****               0 ****  **** 
   1522  MOH           9434 ****               0 ****  **** 
   1523  MOH           9440 ****               0 ****  **** 
   1524  MOH           9446 ****               0 ****  **** 
   1525  MOH           9452 ****               0 ****  **** 
   1526  MOH           9458 ****               0 ****  **** 
   1527  MOH           9464 ****               0 ****  **** 
   1528  MOH           9470 ****               0 ****  **** 
   1529  MOH           9476 ****               0 ****  **** 
   1530  MOH           9482 ****               0 ****  **** 
   1531  MOH           9488 ****               0 ****  **** 
   1532  MOH           9494 ****               0 ****  **** 
   1533  MOH           9500 ****               0 ****  **** 
   1534  MOH           9506 ****               0 ****  **** 
   1535  MOH           9512 ****               0 ****  **** 
   1536  MOH           9518 ****               0 ****  **** 
   1537  MOH           9524 ****               0 ****  **** 
   1538  MOH           9530 ****               0 ****  **** 
   1539  MOH           9536 ****               0 ****  **** 
   1540  MOH           9542 ****               0 ****  **** 
   1541  MOH           9548 ****               0 ****  **** 
   1542  MOH           9554 ****               0 ****  **** 
   1543  MOH           9560 ****               0 ****  **** 
   1544  MOH           9566 ****               0 ****  **** 
   1545  MOH           9572 ****               0 ****  **** 
   1546  MOH           9578 ****               0 ****  **** 
   1547  MOH           9584 ****               0 ****  **** 
   1548  MOH           9590 ****               0 ****  **** 
   1549  MOH           9596 ****               0 ****  **** 
   1550  MOH           9602 ****               0 ****  **** 
   1551  MOH           9608 ****               0 ****  **** 
   1552  MOH           9614 ****               0 ****  **** 
   1553  MOH           9620 ****               0 ****  **** 
   1554  MOH           9626 ****               0 ****  **** 
   1555  MOH           9632 ****               0 ****  **** 
   1556  MOH           9638 ****               0 ****  **** 
   1557  MOH           9644 ****               0 ****  **** 
   1558  MOH           9650 ****               0 ****  **** 
   1559  MOH           9656 ****               0 ****  **** 
   1560  MOH           9662 ****               0 ****  **** 
   1561  MOH           9668 ****               0 ****  **** 
   1562  MOH           9674 ****               0 ****  **** 
   1563  MOH           9680 ****               0 ****  **** 
   1564  MOH           9686 ****               0 ****  **** 
   1565  MOH           9692 ****               0 ****  **** 
   1566  MOH           9698 ****               0 ****  **** 
   1567  MOH           9704 ****               0 ****  **** 
   1568  MOH           9710 ****               0 ****  **** 
   1569  MOH           9716 ****               0 ****  **** 
   1570  MOH           9722 ****               0 ****  **** 
   1571  MOH           9728 ****               0 ****  **** 
   1572  MOH           9734 ****               0 ****  **** 
   1573  MOH           9740 ****               0 ****  **** 
   1574  MOH           9746 ****               0 ****  **** 
   1575  MOH           9752 ****               0 ****  **** 
   1576  MOH           9758 ****               0 ****  **** 
   1577  MOH           9764 ****               0 ****  **** 
   1578  MOH           9770 ****               0 ****  **** 
   1579  MOH           9776 ****               0 ****  **** 
   1580  MOH           9782 ****               0 ****  **** 
   1581  MOH           9788 ****               0 ****  **** 
   1582  MOH           9794 ****               0 ****  **** 
   1583  MOH           9800 ****               0 ****  **** 
   1584  MOH           9806 ****               0 ****  **** 
   1585  MOH           9812 ****               0 ****  **** 
   1586  MOH           9818 ****               0 ****  **** 
   1587  MOH           9824 ****               0 ****  **** 
   1588  MOH           9830 ****               0 ****  **** 
   1589  MOH           9836 ****               0 ****  **** 
   1590  MOH           9842 ****               0 ****  **** 
   1591  MOH           9848 ****               0 ****  **** 
   1592  MOH           9854 ****               0 ****  **** 
   1593  MOH           9860 ****               0 ****  **** 
   1594  MOH           9866 ****               0 ****  **** 
   1595  MOH           9872 ****               0 ****  **** 
   1596  MOH           9878 ****               0 ****  **** 
   1597  MOH           9884 ****               0 ****  **** 
   1598  MOH           9890 ****               0 ****  **** 
   1599  MOH           9896 ****               0 ****  **** 
   1600  MOH           9902 ****               0 ****  **** 
   1601  MOH           9908 ****               0 ****  **** 
   1602  MOH           9914 ****               0 ****  **** 
   1603  MOH           9920 ****               0 ****  **** 
   1604  MOH           9926 ****               0 ****  **** 
   1605  MOH           9932 ****               0 ****  **** 
   1606  MOH           9938 ****               0 ****  **** 
   1607  MOH           9944 ****               0 ****  **** 
   1608  MOH           9950 ****               0 ****  **** 
   1609  MOH           9956 ****               0 ****  **** 
   1610  MOH           9962 ****               0 ****  **** 
   1611  MOH           9968 ****               0 ****  **** 
   1612  MOH           9974 ****               0 ****  **** 
   1613  MOH           9980 ****               0 ****  **** 
   1614  MOH           9986 ****               0 ****  **** 
   1615  MOH           9992 ****               0 ****  **** 
   1616  MOH           9998 ****               0 ****  **** 
   1617  MOH          10004 ****               0 ****  **** 
   1618  MOH          10010 ****               0 ****  **** 
   1619  MOH          10016 ****               0 ****  **** 
   1620  MOH          10022 ****               0 ****  **** 
   1621  MOH          10028 ****               0 ****  **** 
   1622  MOH          10034 ****               0 ****  **** 
   1623  MOH          10040 ****               0 ****  **** 
   1624  MOH          10046 ****               0 ****  **** 
   1625  MOH          10052 ****               0 ****  **** 
   1626  MOH          10058 ****               0 ****  **** 
   1627  MOH          10064 ****               0 ****  **** 
   1628  MOH          10070 ****               0 ****  **** 
   1629  MOH          10076 ****               0 ****  **** 
   1630  MOH          10082 ****               0 ****  **** 
   1631  MOH          10088 ****               0 ****  **** 
   1632  MOH          10094 ****               0 ****  **** 
   1633  MOH          10100 ****               0 ****  **** 
   1634  MOH          10106 ****               0 ****  **** 
   1635  MOH          10112 ****               0 ****  **** 
   1636  MOH          10118 ****               0 ****  **** 
   1637  MOH          10124 ****               0 ****  **** 
   1638  MOH          10130 ****               0 ****  **** 
   1639  MOH          10136 ****               0 ****  **** 
   1640  MOH          10142 ****               0 ****  **** 
   1641  MOH          10148 ****               0 ****  **** 
   1642  MOH          10154 ****               0 ****  **** 
   1643  MOH          10160 ****               0 ****  **** 
   1644  MOH          10166 ****               0 ****  **** 
   1645  MOH          10172 ****               0 ****  **** 
   1646  MOH          10178 ****               0 ****  **** 
   1647  MOH          10184 ****               0 ****  **** 
   1648  MOH          10190 ****               0 ****  **** 
   1649  MOH          10196 ****               0 ****  **** 
   1650  MOH          10202 ****               0 ****  **** 
   1651  MOH          10208 ****               0 ****  **** 
   1652  MOH          10214 ****               0 ****  **** 
   1653  MOH          10220 ****               0 ****  **** 
   1654  MOH          10226 ****               0 ****  **** 
   1655  MOH          10232 ****               0 ****  **** 
   1656  MOH          10238 ****               0 ****  **** 
   1657  MOH          10244 ****               0 ****  **** 
   1658  MOH          10250 ****               0 ****  **** 
   1659  MOH          10256 ****               0 ****  **** 
   1660  MOH          10262 ****               0 ****  **** 
   1661  MOH          10268 ****               0 ****  **** 
   1662  MOH          10274 ****               0 ****  **** 
   1663  MOH          10280 ****               0 ****  **** 
   1664  MOH          10286 ****               0 ****  **** 
   1665  MOH          10292 ****               0 ****  **** 
   1666  MOH          10298 ****               0 ****  **** 
   1667  MOH          10304 ****               0 ****  **** 
   1668  MOH          10310 ****               0 ****  **** 
   1669  MOH          10316 ****               0 ****  **** 
   1670  MOH          10322 ****               0 ****  **** 
   1671  MOH          10328 ****               0 ****  **** 
   1672  MOH          10334 ****               0 ****  **** 
   1673  MOH          10340 ****               0 ****  **** 
   1674  MOH          10346 ****               0 ****  **** 
   1675  MOH          10352 ****               0 ****  **** 
   1676  MOH          10358 ****               0 ****  **** 
   1677  MOH          10364 ****               0 ****  **** 
   1678  MOH          10370 ****               0 ****  **** 
   1679  MOH          10376 ****               0 ****  **** 
   1680  MOH          10382 ****               0 ****  **** 
   1681  MOH          10388 ****               0 ****  **** 
   1682  MOH          10394 ****               0 ****  **** 
   1683  MOH          10400 ****               0 ****  **** 
   1684  MOH          10406 ****               0 ****  **** 
   1685  MOH          10412 ****               0 ****  **** 
   1686  MOH          10418 ****               0 ****  **** 
   1687  MOH          10424 ****               0 ****  **** 
   1688  MOH          10430 ****               0 ****  **** 
   1689  MOH          10436 ****               0 ****  **** 
   1690  MOH          10442 ****               0 ****  **** 
   1691  MOH          10448 ****               0 ****  **** 
   1692  MOH          10454 ****               0 ****  **** 
   1693  MOH          10460 ****               0 ****  **** 
   1694  MOH          10466 ****               0 ****  **** 
   1695  MOH          10472 ****               0 ****  **** 
   1696  MOH          10478 ****               0 ****  **** 
   1697  MOH          10484 ****               0 ****  **** 
   1698  MOH          10490 ****               0 ****  **** 
   1699  MOH          10496 ****               0 ****  **** 
   1700  MOH          10502 ****               0 ****  **** 
   1701  MOH          10508 ****               0 ****  **** 
   1702  MOH          10514 ****               0 ****  **** 
   1703  MOH          10520 ****               0 ****  **** 
   1704  MOH          10526 ****               0 ****  **** 
   1705  MOH          10532 ****               0 ****  **** 
   1706  MOH          10538 ****               0 ****  **** 
   1707  MOH          10544 ****               0 ****  **** 
   1708  MOH          10550 ****               0 ****  **** 
   1709  MOH          10556 ****               0 ****  **** 
   1710  MOH          10562 ****               0 ****  **** 
   1711  MOH          10568 ****               0 ****  **** 
   1712  MOH          10574 ****               0 ****  **** 
   1713  MOH          10580 ****               0 ****  **** 
   1714  MOH          10586 ****               0 ****  **** 
   1715  MOH          10592 ****               0 ****  **** 
   1716  MOH          10598 ****               0 ****  **** 
   1717  MOH          10604 ****               0 ****  **** 
   1718  MOH          10610 ****               0 ****  **** 
   1719  MOH          10616 ****               0 ****  **** 
   1720  MOH          10622 ****               0 ****  **** 
   1721  MOH          10628 ****               0 ****  **** 
   1722  MOH          10634 ****               0 ****  **** 
   1723  MOH          10640 ****               0 ****  **** 
   1724  MOH          10646 ****               0 ****  **** 
   1725  MOH          10652 ****               0 ****  **** 
   1726  MOH          10658 ****               0 ****  **** 
   1727  MOH          10664 ****               0 ****  **** 
   1728  MOH          10670 ****               0 ****  **** 
   1729  MOH          10676 ****               0 ****  **** 
   1730  MOH          10682 ****               0 ****  **** 
   1731  MOH          10688 ****               0 ****  **** 
   1732  MOH          10694 ****               0 ****  **** 
   1733  MOH          10700 ****               0 ****  **** 
   1734  MOH          10706 ****               0 ****  **** 
   1735  MOH          10712 ****               0 ****  **** 
   1736  MOH          10718 ****               0 ****  **** 
   1737  MOH          10724 ****               0 ****  **** 
   1738  MOH          10730 ****               0 ****  **** 
   1739  MOH          10736 ****               0 ****  **** 
   1740  MOH          10742 ****               0 ****  **** 
   1741  MOH          10748 ****               0 ****  **** 
   1742  MOH          10754 ****               0 ****  **** 
   1743  MOH          10760 ****               0 ****  **** 
   1744  MOH          10766 ****               0 ****  **** 
   1745  MOH          10772 ****               0 ****  **** 
   1746  MOH          10778 ****               0 ****  **** 
   1747  MOH          10784 ****               0 ****  **** 
   1748  MOH          10790 ****               0 ****  **** 
   1749  MOH          10796 ****               0 ****  **** 
   1750  MOH          10802 ****               0 ****  **** 
   1751  MOH          10808 ****               0 ****  **** 
   1752  MOH          10814 ****               0 ****  **** 
   1753  MOH          10820 ****               0 ****  **** 
   1754  MOH          10826 ****               0 ****  **** 
   1755  MOH          10832 ****               0 ****  **** 
   1756  MOH          10838 ****               0 ****  **** 
   1757  MOH          10844 ****               0 ****  **** 
   1758  MOH          10850 ****               0 ****  **** 
   1759  MOH          10856 ****               0 ****  **** 
   1760  MOH          10862 ****               0 ****  **** 
   1761  MOH          10868 ****               0 ****  **** 
   1762  MOH          10874 ****               0 ****  **** 
   1763  MOH          10880 ****               0 ****  **** 
   1764  MOH          10886 ****               0 ****  **** 
   1765  MOH          10892 ****               0 ****  **** 
   1766  MOH          10898 ****               0 ****  **** 
   1767  MOH          10904 ****               0 ****  **** 
   1768  MOH          10910 ****               0 ****  **** 
   1769  MOH          10916 ****               0 ****  **** 
   1770  MOH          10922 ****               0 ****  **** 
   1771  MOH          10928 ****               0 ****  **** 
   1772  MOH          10934 ****               0 ****  **** 
   1773  MOH          10940 ****               0 ****  **** 
   1774  MOH          10946 ****               0 ****  **** 
   1775  MOH          10952 ****               0 ****  **** 
   1776  MOH          10958 ****               0 ****  **** 
   1777  MOH          10964 ****               0 ****  **** 
   1778  MOH          10970 ****               0 ****  **** 
   1779  MOH          10976 ****               0 ****  **** 
   1780  MOH          10982 ****               0 ****  **** 
   1781  MOH          10988 ****               0 ****  **** 
   1782  MOH          10994 ****               0 ****  **** 
   1783  MOH          11000 ****               0 ****  **** 
   1784  MOH          11006 ****               0 ****  **** 
   1785  MOH          11012 ****               0 ****  **** 
   1786  MOH          11018 ****               0 ****  **** 
   1787  MOH          11024 ****               0 ****  **** 
   1788  MOH          11030 ****               0 ****  **** 
   1789  MOH          11036 ****               0 ****  **** 
   1790  MOH          11042 ****               0 ****  **** 
   1791  MOH          11048 ****               0 ****  **** 
   1792  MOH          11054 ****               0 ****  **** 
   1793  MOH          11060 ****               0 ****  **** 
   1794  MOH          11066 ****               0 ****  **** 
   1795  MOH          11072 ****               0 ****  **** 
   1796  MOH          11078 ****               0 ****  **** 
   1797  MOH          11084 ****               0 ****  **** 
   1798  MOH          11090 ****               0 ****  **** 
   1799  MOH          11096 ****               0 ****  **** 
   1800  MOH          11102 ****               0 ****  **** 
   1801  MOH          11108 ****               0 ****  **** 
   1802  MOH          11114 ****               0 ****  **** 
   1803  MOH          11120 ****               0 ****  **** 
   1804  MOH          11126 ****               0 ****  **** 
   1805  MOH          11132 ****               0 ****  **** 
   1806  MOH          11138 ****               0 ****  **** 
   1807  MOH          11144 ****               0 ****  **** 
   1808  MOH          11150 ****               0 ****  **** 
   1809  MOH          11156 ****               0 ****  **** 
   1810  MOH          11162 ****               0 ****  **** 
   1811  MOH          11168 ****               0 ****  **** 
   1812  MOH          11174 ****               0 ****  **** 
   1813  MOH          11180 ****               0 ****  **** 
   1814  MOH          11186 ****               0 ****  **** 
   1815  MOH          11192 ****               0 ****  **** 
   1816  MOH          11198 ****               0 ****  **** 
   1817  MOH          11204 ****               0 ****  **** 
   1818  MOH          11210 ****               0 ****  **** 
   1819  MOH          11216 ****               0 ****  **** 
   1820  MOH          11222 ****               0 ****  **** 
   1821  MOH          11228 ****               0 ****  **** 
   1822  MOH          11234 ****               0 ****  **** 
   1823  MOH          11240 ****               0 ****  **** 
   1824  MOH          11246 ****               0 ****  **** 
   1825  MOH          11252 ****               0 ****  **** 
   1826  MOH          11258 ****               0 ****  **** 
   1827  MOH          11264 ****               0 ****  **** 
   1828  MOH          11270 ****               0 ****  **** 
   1829  MOH          11276 ****               0 ****  **** 
   1830  MOH          11282 ****               0 ****  **** 
   1831  MOH          11288 ****               0 ****  **** 
   1832  MOH          11294 ****               0 ****  **** 
   1833  MOH          11300 ****               0 ****  **** 
   1834  MOH          11306 ****               0 ****  **** 
   1835  MOH          11312 ****               0 ****  **** 
   1836  MOH          11318 ****               0 ****  **** 
   1837  MOH          11324 ****               0 ****  **** 
   1838  MOH          11330 ****               0 ****  **** 
   1839  MOH          11336 ****               0 ****  **** 
   1840  MOH          11342 ****               0 ****  **** 
   1841  MOH          11348 ****               0 ****  **** 
   1842  MOH          11354 ****               0 ****  **** 
   1843  MOH          11360 ****               0 ****  **** 
   1844  MOH          11366 ****               0 ****  **** 
   1845  MOH          11372 ****               0 ****  **** 
   1846  MOH          11378 ****               0 ****  **** 
   1847  MOH          11384 ****               0 ****  **** 
   1848  MOH          11390 ****               0 ****  **** 
   1849  MOH          11396 ****               0 ****  **** 
   1850  MOH          11402 ****               0 ****  **** 
   1851  MOH          11408 ****               0 ****  **** 
   1852  MOH          11414 ****               0 ****  **** 
   1853  MOH          11420 ****               0 ****  **** 
   1854  MOH          11426 ****               0 ****  **** 
   1855  MOH          11432 ****               0 ****  **** 
   1856  MOH          11438 ****               0 ****  **** 
   1857  MOH          11444 ****               0 ****  **** 
   1858  MOH          11450 ****               0 ****  **** 
   1859  MOH          11456 ****               0 ****  **** 
   1860  MOH          11462 ****               0 ****  **** 
   1861  MOH          11468 ****               0 ****  **** 
   1862  MOH          11474 ****               0 ****  **** 
   1863  MOH          11480 ****               0 ****  **** 
   1864  MOH          11486 ****               0 ****  **** 
   1865  MOH          11492 ****               0 ****  **** 
   1866  MOH          11498 ****               0 ****  **** 
   1867  MOH          11504 ****               0 ****  **** 
   1868  MOH          11510 ****               0 ****  **** 
   1869  MOH          11516 ****               0 ****  **** 
   1870  MOH          11522 ****               0 ****  **** 
   1871  MOH          11528 ****               0 ****  **** 
   1872  MOH          11534 ****               0 ****  **** 
   1873  MOH          11540 ****               0 ****  **** 
   1874  MOH          11546 ****               0 ****  **** 
   1875  MOH          11552 ****               0 ****  **** 
   1876  MOH          11558 ****               0 ****  **** 
   1877  MOH          11564 ****               0 ****  **** 
   1878  MOH          11570 ****               0 ****  **** 
   1879  MOH          11576 ****               0 ****  **** 
   1880  MOH          11582 ****               0 ****  **** 
   1881  MOH          11588 ****               0 ****  **** 
   1882  MOH          11594 ****               0 ****  **** 
   1883  MOH          11600 ****               0 ****  **** 
   1884  MOH          11606 ****               0 ****  **** 
   1885  MOH          11612 ****               0 ****  **** 
   1886  MOH          11618 ****               0 ****  **** 
   1887  MOH          11624 ****               0 ****  **** 
   1888  MOH          11630 ****               0 ****  **** 
   1889  MOH          11636 ****               0 ****  **** 
   1890  MOH          11642 ****               0 ****  **** 
   1891  MOH          11648 ****               0 ****  **** 
   1892  MOH          11654 ****               0 ****  **** 
   1893  MOH          11660 ****               0 ****  **** 
   1894  MOH          11666 ****               0 ****  **** 
   1895  MOH          11672 ****               0 ****  **** 
   1896  MOH          11678 ****               0 ****  **** 
   1897  MOH          11684 ****               0 ****  **** 
   1898  MOH          11690 ****               0 ****  **** 
   1899  MOH          11696 ****               0 ****  **** 
   1900  MOH          11702 ****               0 ****  **** 
   1901  MOH          11708 ****               0 ****  **** 
   1902  MOH          11714 ****               0 ****  **** 
   1903  MOH          11720 ****               0 ****  **** 
   1904  MOH          11726 ****               0 ****  **** 
   1905  MOH          11732 ****               0 ****  **** 
   1906  MOH          11738 ****               0 ****  **** 
   1907  MOH          11744 ****               0 ****  **** 
   1908  MOH          11750 ****               0 ****  **** 
   1909  MOH          11756 ****               0 ****  **** 
   1910  MOH          11762 ****               0 ****  **** 
   1911  MOH          11768 ****               0 ****  **** 
   1912  MOH          11774 ****               0 ****  **** 
   1913  MOH          11780 ****               0 ****  **** 
   1914  MOH          11786 ****               0 ****  **** 
   1915  MOH          11792 ****               0 ****  **** 
   1916  MOH          11798 ****               0 ****  **** 
   1917  MOH          11804 ****               0 ****  **** 
   1918  MOH          11810 ****               0 ****  **** 
   1919  MOH          11816 ****               0 ****  **** 
   1920  MOH          11822 ****               0 ****  **** 
   1921  MOH          11828 ****               0 ****  **** 
   1922  MOH          11834 ****               0 ****  **** 
   1923  MOH          11840 ****               0 ****  **** 
   1924  MOH          11846 ****               0 ****  **** 
   1925  MOH          11852 ****               0 ****  **** 
   1926  MOH          11858 ****               0 ****  **** 
   1927  MOH          11864 ****               0 ****  **** 
   1928  MOH          11870 ****               0 ****  **** 
   1929  MOH          11876 ****               0 ****  **** 
   1930  MOH          11882 ****               0 ****  **** 
   1931  MOH          11888 ****               0 ****  **** 
   1932  MOH          11894 ****               0 ****  **** 
   1933  MOH          11900 ****               0 ****  **** 
   1934  MOH          11906 ****               0 ****  **** 
   1935  MOH          11912 ****               0 ****  **** 
   1936  MOH          11918 ****               0 ****  **** 
   1937  MOH          11924 ****               0 ****  **** 
   1938  MOH          11930 ****               0 ****  **** 
   1939  MOH          11936 ****               0 ****  **** 
   1940  MOH          11942 ****               0 ****  **** 
   1941  MOH          11948 ****               0 ****  **** 
   1942  MOH          11954 ****               0 ****  **** 
   1943  MOH          11960 ****               0 ****  **** 
   1944  MOH          11966 ****               0 ****  **** 
   1945  MOH          11972 ****               0 ****  **** 
   1946  MOH          11978 ****               0 ****  **** 
   1947  MOH          11984 ****               0 ****  **** 
   1948  MOH          11990 ****               0 ****  **** 
   1949  MOH          11996 ****               0 ****  **** 
   1950  MOH          12002 ****               0 ****  **** 
   1951  MOH          12008 ****               0 ****  **** 
   1952  MOH          12014 ****               0 ****  **** 
   1953  MOH          12020 ****               0 ****  **** 
   1954  MOH          12026 ****               0 ****  **** 
   1955  MOH          12032 ****               0 ****  **** 
   1956  MOH          12038 ****               0 ****  **** 
   1957  MOH          12044 ****               0 ****  **** 
   1958  MOH          12050 ****               0 ****  **** 
   1959  MOH          12056 ****               0 ****  **** 
   1960  MOH          12062 ****               0 ****  **** 
   1961  MOH          12068 ****               0 ****  **** 
   1962  MOH          12074 ****               0 ****  **** 
   1963  MOH          12080 ****               0 ****  **** 
   1964  MOH          12086 ****               0 ****  **** 
   1965  MOH          12092 ****               0 ****  **** 
   1966  MOH          12098 ****               0 ****  **** 
   1967  MOH          12104 ****               0 ****  **** 
   1968  MOH          12110 ****               0 ****  **** 
   1969  MOH          12116 ****               0 ****  **** 
   1970  MOH          12122 ****               0 ****  **** 
   1971  MOH          12128 ****               0 ****  **** 
   1972  MOH          12134 ****               0 ****  **** 
   1973  MOH          12140 ****               0 ****  **** 
   1974  MOH          12146 ****               0 ****  **** 
   1975  MOH          12152 ****               0 ****  **** 
   1976  MOH          12158 ****               0 ****  **** 
   1977  MOH          12164 ****               0 ****  **** 
   1978  MOH          12170 ****               0 ****  **** 
   1979  MOH          12176 ****               0 ****  **** 
   1980  MOH          12182 ****               0 ****  **** 
   1981  MOH          12188 ****               0 ****  **** 
   1982  MOH          12194 ****               0 ****  **** 
   1983  MOH          12200 ****               0 ****  **** 
   1984  MOH          12206 ****               0 ****  **** 
   1985  MOH          12212 ****               0 ****  **** 
   1986  MOH          12218 ****               0 ****  **** 
   1987  MOH          12224 ****               0 ****  **** 
   1988  MOH          12230 ****               0 ****  **** 
   1989  MOH          12236 ****               0 ****  **** 
   1990  MOH          12242 ****               0 ****  **** 
   1991  MOH          12248 ****               0 ****  **** 
   1992  MOH          12254 ****               0 ****  **** 
   1993  MOH          12260 ****               0 ****  **** 
   1994  MOH          12266 ****               0 ****  **** 
   1995  MOH          12272 ****               0 ****  **** 
   1996  MOH          12278 ****               0 ****  **** 
   1997  MOH          12284 ****               0 ****  **** 
   1998  MOH          12290 ****               0 ****  **** 
   1999  MOH          12296 ****               0 ****  **** 
   2000  MOH          12302 ****               0 ****  **** 
   2001  MOH          12308 ****               0 ****  **** 
   2002  MOH          12314 ****               0 ****  **** 
   2003  MOH          12320 ****               0 ****  **** 
   2004  MOH          12326 ****               0 ****  **** 
   2005  MOH          12332 ****               0 ****  **** 
   2006  MOH          12338 ****               0 ****  **** 
   2007  MOH          12344 ****               0 ****  **** 
   2008  MOH          12350 ****               0 ****  **** 
   2009  MOH          12356 ****               0 ****  **** 
   2010  MOH          12362 ****               0 ****  **** 
   2011  MOH          12368 ****               0 ****  **** 
   2012  MOH          12374 ****               0 ****  **** 
   2013  MOH          12380 ****               0 ****  **** 
   2014  MOH          12386 ****               0 ****  **** 
   2015  MOH          12392 ****               0 ****  **** 
   2016  MOH          12398 ****               0 ****  **** 
   2017  MOH          12404 ****               0 ****  **** 
   2018  MOH          12410 ****               0 ****  **** 
   2019  MOH          12416 ****               0 ****  **** 
   2020  MOH          12422 ****               0 ****  **** 
   2021  MOH          12428 ****               0 ****  **** 
   2022  MOH          12434 ****               0 ****  **** 
   2023  MOH          12440 ****               0 ****  **** 
   2024  MOH          12446 ****               0 ****  **** 
   2025  MOH          12452 ****               0 ****  **** 
   2026  MOH          12458 ****               0 ****  **** 
   2027  MOH          12464 ****               0 ****  **** 
   2028  MOH          12470 ****               0 ****  **** 
   2029  MOH          12476 ****               0 ****  **** 
   2030  MOH          12482 ****               0 ****  **** 
   2031  MOH          12488 ****               0 ****  **** 
   2032  MOH          12494 ****               0 ****  **** 
   2033  MOH          12500 ****               0 ****  **** 
   2034  MOH          12506 ****               0 ****  **** 
   2035  MOH          12512 ****               0 ****  **** 
   2036  MOH          12518 ****               0 ****  **** 
   2037  MOH          12524 ****               0 ****  **** 
   2038  MOH          12530 ****               0 ****  **** 
   2039  MOH          12536 ****               0 ****  **** 
   2040  MOH          12542 ****               0 ****  **** 
   2041  MOH          12548 ****               0 ****  **** 
   2042  MOH          12554 ****               0 ****  **** 
   2043  MOH          12560 ****               0 ****  **** 
   2044  MOH          12566 ****               0 ****  **** 
   2045  MOH          12572 ****               0 ****  **** 
   2046  MOH          12578 ****               0 ****  **** 
   2047  MOH          12584 ****               0 ****  **** 
   2048  MOH          12590 ****               0 ****  **** 
   2049  MOH          12596 ****               0 ****  **** 
   2050  MOH          12602 ****               0 ****  **** 
   2051  MOH          12608 ****               0 ****  **** 
   2052  MOH          12614 ****               0 ****  **** 
   2053  MOH          12620 ****               0 ****  **** 
   2054  MOH          12626 ****               0 ****  **** 
   2055  MOH          12632 ****               0 ****  **** 
   2056  MOH          12638 ****               0 ****  **** 
   2057  MOH          12644 ****               0 ****  **** 
   2058  MOH          12650 ****               0 ****  **** 
   2059  MOH          12656 ****               0 ****  **** 
   2060  MOH          12662 ****               0 ****  **** 
   2061  MOH          12668 ****               0 ****  **** 
   2062  MOH          12674 ****               0 ****  **** 
   2063  MOH          12680 ****               0 ****  **** 
   2064  MOH          12686 ****               0 ****  **** 
   2065  MOH          12692 ****               0 ****  **** 
   2066  MOH          12698 ****               0 ****  **** 
   2067  MOH          12704 ****               0 ****  **** 
   2068  MOH          12710 ****               0 ****  **** 
   2069  MOH          12716 ****               0 ****  **** 
   2070  MOH          12722 ****               0 ****  **** 
   2071  MOH          12728 ****               0 ****  **** 
   2072  MOH          12734 ****               0 ****  **** 
   2073  MOH          12740 ****               0 ****  **** 
   2074  MOH          12746 ****               0 ****  **** 
   2075  MOH          12752 ****               0 ****  **** 
   2076  MOH          12758 ****               0 ****  **** 
   2077  MOH          12764 ****               0 ****  **** 
   2078  MOH          12770 ****               0 ****  **** 
   2079  MOH          12776 ****               0 ****  **** 
   2080  MOH          12782 ****               0 ****  **** 
   2081  MOH          12788 ****               0 ****  **** 
   2082  MOH          12794 ****               0 ****  **** 
   2083  MOH          12800 ****               0 ****  **** 
   2084  MOH          12806 ****               0 ****  **** 
   2085  MOH          12812 ****               0 ****  **** 
   2086  MOH          12818 ****               0 ****  **** 
   2087  MOH          12824 ****               0 ****  **** 
   2088  MOH          12830 ****               0 ****  **** 
   2089  MOH          12836 ****               0 ****  **** 
   2090  MOH          12842 ****               0 ****  **** 
   2091  MOH          12848 ****               0 ****  **** 
   2092  MOH          12854 ****               0 ****  **** 
   2093  MOH          12860 ****               0 ****  **** 
   2094  MOH          12866 ****               0 ****  **** 
   2095  MOH          12872 ****               0 ****  **** 
   2096  MOH          12878 ****               0 ****  **** 
   2097  MOH          12884 ****               0 ****  **** 
   2098  MOH          12890 ****               0 ****  **** 
   2099  MOH          12896 ****               0 ****  **** 
   2100  MOH          12902 ****               0 ****  **** 
   2101  MOH          12908 ****               0 ****  **** 
   2102  MOH          12914 ****               0 ****  **** 
   2103  MOH          12920 ****               0 ****  **** 
   2104  MOH          12926 ****               0 ****  **** 
   2105  MOH          12932 ****               0 ****  **** 
   2106  MOH          12938 ****               0 ****  **** 
   2107  MOH          12944 ****               0 ****  **** 
   2108  MOH          12950 ****               0 ****  **** 
   2109  MOH          12956 ****               0 ****  **** 
   2110  MOH          12962 ****               0 ****  **** 
   2111  MOH          12968 ****               0 ****  **** 
   2112  MOH          12974 ****               0 ****  **** 
   2113  MOH          12980 ****               0 ****  **** 
   2114  MOH          12986 ****               0 ****  **** 
   2115  MOH          12992 ****               0 ****  **** 
   2116  MOH          12998 ****               0 ****  **** 
   2117  MOH          13004 ****               0 ****  **** 
   2118  MOH          13010 ****               0 ****  **** 
   2119  MOH          13016 ****               0 ****  **** 
   2120  MOH          13022 ****               0 ****  **** 
   2121  MOH          13028 ****               0 ****  **** 
   2122  MOH          13034 ****               0 ****  **** 
   2123  MOH          13040 ****               0 ****  **** 
   2124  MOH          13046 ****               0 ****  **** 
   2125  MOH          13052 ****               0 ****  **** 
   2126  MOH          13058 ****               0 ****  **** 
   2127  MOH          13064 ****               0 ****  **** 
   2128  MOH          13070 ****               0 ****  **** 
   2129  MOH          13076 ****               0 ****  **** 
   2130  MOH          13082 ****               0 ****  **** 
   2131  MOH          13088 ****               0 ****  **** 
   2132  MOH          13094 ****               0 ****  **** 
   2133  MOH          13100 ****               0 ****  **** 
   2134  MOH          13106 ****               0 ****  **** 
   2135  MOH          13112 ****               0 ****  **** 
   2136  MOH          13118 ****               0 ****  **** 
   2137  MOH          13124 ****               0 ****  **** 
   2138  MOH          13130 ****               0 ****  **** 
   2139  MOH          13136 ****               0 ****  **** 
   2140  MOH          13142 ****               0 ****  **** 
   2141  MOH          13148 ****               0 ****  **** 
   2142  MOH          13154 ****               0 ****  **** 
   2143  MOH          13160 ****               0 ****  **** 
   2144  MOH          13166 ****               0 ****  **** 
   2145  MOH          13172 ****               0 ****  **** 
   2146  MOH          13178 ****               0 ****  **** 
   2147  MOH          13184 ****               0 ****  **** 
   2148  MOH          13190 ****               0 ****  **** 
   2149  MOH          13196 ****               0 ****  **** 
   2150  MOH          13202 ****               0 ****  **** 
   2151  MOH          13208 ****               0 ****  **** 
   2152  MOH          13214 ****               0 ****  **** 
   2153  MOH          13220 ****               0 ****  **** 
   2154  MOH          13226 ****               0 ****  **** 
   2155  MOH          13232 ****               0 ****  **** 
   2156  MOH          13238 ****               0 ****  **** 
   2157  MOH          13244 ****               0 ****  **** 
   2158  MOH          13250 ****               0 ****  **** 
   2159  MOH          13256 ****               0 ****  **** 
   2160  MOH          13262 ****               0 ****  **** 
   2161  MOH          13268 ****               0 ****  **** 
   2162  MOH          13274 ****               0 ****  **** 
   2163  MOH          13280 ****               0 ****  **** 
   2164  MOH          13286 ****               0 ****  **** 
   2165  MOH          13292 ****               0 ****  **** 
   2166  MOH          13298 ****               0 ****  **** 
   2167  MOH          13304 ****               0 ****  **** 
   2168  MOH          13310 ****               0 ****  **** 
   2169  MOH          13316 ****               0 ****  **** 
   2170  MOH          13322 ****               0 ****  **** 
   2171  MOH          13328 ****               0 ****  **** 
   2172  MOH          13334 ****               0 ****  **** 
   2173  MOH          13340 ****               0 ****  **** 
   2174  MOH          13346 ****               0 ****  **** 
   2175  MOH          13352 ****               0 ****  **** 
   2176  MOH          13358 ****               0 ****  **** 
   2177  MOH          13364 ****               0 ****  **** 
   2178  MOH          13370 ****               0 ****  **** 
   2179  MOH          13376 ****               0 ****  **** 
   2180  MOH          13382 ****               0 ****  **** 
   2181  MOH          13388 ****               0 ****  **** 
   2182  MOH          13394 ****               0 ****  **** 
   2183  MOH          13400 ****               0 ****  **** 
   2184  MOH          13406 ****               0 ****  **** 
   2185  MOH          13412 ****               0 ****  **** 
   2186  MOH          13418 ****               0 ****  **** 
   2187  MOH          13424 ****               0 ****  **** 
   2188  MOH          13430 ****               0 ****  **** 
   2189  MOH          13436 ****               0 ****  **** 
   2190  MOH          13442 ****               0 ****  **** 
   2191  MOH          13448 ****               0 ****  **** 
   2192  MOH          13454 ****               0 ****  **** 
   2193  MOH          13460 ****               0 ****  **** 
   2194  MOH          13466 ****               0 ****  **** 
   2195  MOH          13472 ****               0 ****  **** 
   2196  MOH          13478 ****               0 ****  **** 
   2197  MOH          13484 ****               0 ****  **** 
   2198  MOH          13490 ****               0 ****  **** 
   2199  MOH          13496 ****               0 ****  **** 
   2200  MOH          13502 ****               0 ****  **** 
   2201  MOH          13508 ****               0 ****  **** 
   2202  MOH          13514 ****               0 ****  **** 
   2203  MOH          13520 ****               0 ****  **** 
   2204  MOH          13526 ****               0 ****  **** 
   2205  MOH          13532 ****               0 ****  **** 
   2206  MOH          13538 ****               0 ****  **** 
   2207  MOH          13544 ****               0 ****  **** 
   2208  MOH          13550 ****               0 ****  **** 
   2209  MOH          13556 ****               0 ****  **** 
   2210  MOH          13562 ****               0 ****  **** 
   2211  MOH          13568 ****               0 ****  **** 
   2212  MOH          13574 ****               0 ****  **** 
   2213  MOH          13580 ****               0 ****  **** 
   2214  MOH          13586 ****               0 ****  **** 
   2215  MOH          13592 ****               0 ****  **** 
   2216  MOH          13598 ****               0 ****  **** 
   2217  MOH          13604 ****               0 ****  **** 
   2218  MOH          13610 ****               0 ****  **** 
   2219  MOH          13616 ****               0 ****  **** 
   2220  MOH          13622 ****               0 ****  **** 
   2221  MOH          13628 ****               0 ****  **** 
   2222  MOH          13634 ****               0 ****  **** 
   2223  MOH          13640 ****               0 ****  **** 
   2224  MOH          13646 ****               0 ****  **** 
   2225  MOH          13652 ****               0 ****  **** 
   2226  MOH          13658 ****               0 ****  **** 
   2227  MOH          13664 ****               0 ****  **** 
   2228  MOH          13670 ****               0 ****  **** 
   2229  MOH          13676 ****               0 ****  **** 
   2230  MOH          13682 ****               0 ****  **** 
   2231  MOH          13688 ****               0 ****  **** 
   2232  MOH          13694 ****               0 ****  **** 
   2233  MOH          13700 ****               0 ****  **** 
   2234  MOH          13706 ****               0 ****  **** 
   2235  MOH          13712 ****               0 ****  **** 
   2236  MOH          13718 ****               0 ****  **** 
   2237  MOH          13724 ****               0 ****  **** 
   2238  MOH          13730 ****               0 ****  **** 
   2239  MOH          13736 ****               0 ****  **** 
   2240  MOH          13742 ****               0 ****  **** 
   2241  MOH          13748 ****               0 ****  **** 
   2242  MOH          13754 ****               0 ****  **** 
   2243  MOH          13760 ****               0 ****  **** 
   2244  MOH          13766 ****               0 ****  **** 
   2245  MOH          13772 ****               0 ****  **** 
   2246  MOH          13778 ****               0 ****  **** 
   2247  MOH          13784 ****               0 ****  **** 
   2248  MOH          13790 ****               0 ****  **** 
   2249  MOH          13796 ****               0 ****  **** 
   2250  MOH          13802 ****               0 ****  **** 
   2251  MOH          13808 ****               0 ****  **** 
   2252  MOH          13814 ****               0 ****  **** 
   2253  MOH          13820 ****               0 ****  **** 
   2254  MOH          13826 ****               0 ****  **** 
   2255  MOH          13832 ****               0 ****  **** 
   2256  MOH          13838 ****               0 ****  **** 
   2257  MOH          13844 ****               0 ****  **** 
   2258  MOH          13850 ****               0 ****  **** 
   2259  MOH          13856 ****               0 ****  **** 
   2260  MOH          13862 ****               0 ****  **** 
   2261  MOH          13868 ****               0 ****  **** 
   2262  MOH          13874 ****               0 ****  **** 
   2263  MOH          13880 ****               0 ****  **** 
   2264  MOH          13886 ****               0 ****  **** 
   2265  MOH          13892 ****               0 ****  **** 
   2266  MOH          13898 ****               0 ****  **** 
   2267  MOH          13904 ****               0 ****  **** 
   2268  MOH          13910 ****               0 ****  **** 
   2269  MOH          13916 ****               0 ****  **** 
   2270  MOH          13922 ****               0 ****  **** 
   2271  MOH          13928 ****               0 ****  **** 
   2272  MOH          13934 ****               0 ****  **** 
   2273  MOH          13940 ****               0 ****  **** 
   2274  MOH          13946 ****               0 ****  **** 
   2275  MOH          13952 ****               0 ****  **** 
   2276  MOH          13958 ****               0 ****  **** 
   2277  MOH          13964 ****               0 ****  **** 
   2278  MOH          13970 ****               0 ****  **** 
   2279  MOH          13976 ****               0 ****  **** 
   2280  MOH          13982 ****               0 ****  **** 
   2281  MOH          13988 ****               0 ****  **** 
   2282  MOH          13994 ****               0 ****  **** 
   2283  MOH          14000 ****               0 ****  **** 
   2284  MOH          14006 ****               0 ****  **** 
   2285  MOH          14012 ****               0 ****  **** 
   2286  MOH          14018 ****               0 ****  **** 
   2287  MOH          14024 ****               0 ****  **** 
   2288  MOH          14030 ****               0 ****  **** 
   2289  MOH          14036 ****               0 ****  **** 
   2290  MOH          14042 ****               0 ****  **** 
   2291  MOH          14048 ****               0 ****  **** 
   2292  MOH          14054 ****               0 ****  **** 
   2293  MOH          14060 ****               0 ****  **** 
   2294  MOH          14066 ****               0 ****  **** 
   2295  MOH          14072 ****               0 ****  **** 
   2296  MOH          14078 ****               0 ****  **** 
   2297  MOH          14084 ****               0 ****  **** 
   2298  MOH          14090 ****               0 ****  **** 
   2299  MOH          14096 ****               0 ****  **** 
   2300  MOH          14102 ****               0 ****  **** 
   2301  MOH          14108 ****               0 ****  **** 
   2302  MOH          14114 ****               0 ****  **** 
   2303  MOH          14120 ****               0 ****  **** 
   2304  MOH          14126 ****               0 ****  **** 
   2305  MOH          14132 ****               0 ****  **** 
   2306  MOH          14138 ****               0 ****  **** 
   2307  MOH          14144 ****               0 ****  **** 
   2308  MOH          14150 ****               0 ****  **** 
   2309  MOH          14156 ****               0 ****  **** 
   2310  MOH          14162 ****               0 ****  **** 
   2311  MOH          14168 ****               0 ****  **** 
   2312  MOH          14174 ****               0 ****  **** 
   2313  MOH          14180 ****               0 ****  **** 
   2314  MOH          14186 ****               0 ****  **** 
   2315  MOH          14192 ****               0 ****  **** 
   2316  MOH          14198 ****               0 ****  **** 
   2317  MOH          14204 ****               0 ****  **** 
   2318  MOH          14210 ****               0 ****  **** 
   2319  MOH          14216 ****               0 ****  **** 
   2320  MOH          14222 ****               0 ****  **** 
   2321  MOH          14228 ****               0 ****  **** 
   2322  MOH          14234 ****               0 ****  **** 
   2323  MOH          14240 ****               0 ****  **** 
   2324  MOH          14246 ****               0 ****  **** 
   2325  MOH          14252 ****               0 ****  **** 
   2326  MOH          14258 ****               0 ****  **** 
   2327  MOH          14264 ****               0 ****  **** 
   2328  MOH          14270 ****               0 ****  **** 
   2329  MOH          14276 ****               0 ****  **** 
   2330  MOH          14282 ****               0 ****  **** 
   2331  MOH          14288 ****               0 ****  **** 
   2332  MOH          14294 ****               0 ****  **** 
   2333  MOH          14300 ****               0 ****  **** 
   2334  MOH          14306 ****               0 ****  **** 
   2335  MOH          14312 ****               0 ****  **** 
   2336  MOH          14318 ****               0 ****  **** 
   2337  MOH          14324 ****               0 ****  **** 
   2338  MOH          14330 ****               0 ****  **** 
   2339  MOH          14336 ****               0 ****  **** 
   2340  MOH          14342 ****               0 ****  **** 
   2341  MOH          14348 ****               0 ****  **** 
   2342  MOH          14354 ****               0 ****  **** 
   2343  MOH          14360 ****               0 ****  **** 
   2344  MOH          14366 ****               0 ****  **** 
   2345  MOH          14372 ****               0 ****  **** 
   2346  MOH          14378 ****               0 ****  **** 
   2347  MOH          14384 ****               0 ****  **** 
   2348  MOH          14390 ****               0 ****  **** 
   2349  MOH          14396 ****               0 ****  **** 
   2350  MOH          14402 ****               0 ****  **** 
   2351  MOH          14408 ****               0 ****  **** 
   2352  MOH          14414 ****               0 ****  **** 
   2353  MOH          14420 ****               0 ****  **** 
   2354  MOH          14426 ****               0 ****  **** 
   2355  MOH          14432 ****               0 ****  **** 
   2356  MOH          14438 ****               0 ****  **** 
   2357  MOH          14444 ****               0 ****  **** 
   2358  MOH          14450 ****               0 ****  **** 
   2359  MOH          14456 ****               0 ****  **** 
   2360  MOH          14462 ****               0 ****  **** 
   2361  MOH          14468 ****               0 ****  **** 
   2362  MOH          14474 ****               0 ****  **** 
   2363  MOH          14480 ****               0 ****  **** 
   2364  MOH          14486 ****               0 ****  **** 
   2365  MOH          14492 ****               0 ****  **** 
   2366  MOH          14498 ****               0 ****  **** 
   2367  MOH          14504 ****               0 ****  **** 
   2368  MOH          14510 ****               0 ****  **** 
   2369  MOH          14516 ****               0 ****  **** 
   2370  MOH          14522 ****               0 ****  **** 
   2371  MOH          14528 ****               0 ****  **** 
   2372  MOH          14534 ****               0 ****  **** 
   2373  MOH          14540 ****               0 ****  **** 
   2374  MOH          14546 ****               0 ****  **** 
   2375  MOH          14552 ****               0 ****  **** 
   2376  MOH          14558 ****               0 ****  **** 
   2377  MOH          14564 ****               0 ****  **** 
   2378  MOH          14570 ****               0 ****  **** 
   2379  MOH          14576 ****               0 ****  **** 
   2380  MOH          14582 ****               0 ****  **** 
   2381  MOH          14588 ****               0 ****  **** 
   2382  MOH          14594 ****               0 ****  **** 
   2383  MOH          14600 ****               0 ****  **** 
   2384  MOH          14606 ****               0 ****  **** 
   2385  MOH          14612 ****               0 ****  **** 
   2386  MOH          14618 ****               0 ****  **** 
   2387  MOH          14624 ****               0 ****  **** 
   2388  MOH          14630 ****               0 ****  **** 
   2389  MOH          14636 ****               0 ****  **** 
   2390  MOH          14642 ****               0 ****  **** 
   2391  MOH          14648 ****               0 ****  **** 
   2392  MOH          14654 ****               0 ****  **** 
   2393  MOH          14660 ****               0 ****  **** 
   2394  MOH          14666 ****               0 ****  **** 
   2395  MOH          14672 ****               0 ****  **** 
   2396  MOH          14678 ****               0 ****  **** 
   2397  MOH          14684 ****               0 ****  **** 
   2398  MOH          14690 ****               0 ****  **** 
   2399  MOH          14696 ****               0 ****  **** 
   2400  MOH          14702 ****               0 ****  **** 
   2401  MOH          14708 ****               0 ****  **** 
   2402  MOH          14714 ****               0 ****  **** 
   2403  MOH          14720 ****               0 ****  **** 
   2404  MOH          14726 ****               0 ****  **** 
   2405  MOH          14732 ****               0 ****  **** 
   2406  MOH          14738 ****               0 ****  **** 
   2407  MOH          14744 ****               0 ****  **** 
   2408  MOH          14750 ****               0 ****  **** 
   2409  MOH          14756 ****               0 ****  **** 
   2410  MOH          14762 ****               0 ****  **** 
   2411  MOH          14768 ****               0 ****  **** 
   2412  MOH          14774 ****               0 ****  **** 
   2413  MOH          14780 ****               0 ****  **** 
   2414  MOH          14786 ****               0 ****  **** 
   2415  MOH          14792 ****               0 ****  **** 
   2416  MOH          14798 ****               0 ****  **** 
   2417  MOH          14804 ****               0 ****  **** 
   2418  MOH          14810 ****               0 ****  **** 
   2419  MOH          14816 ****               0 ****  **** 
   2420  MOH          14822 ****               0 ****  **** 
   2421  MOH          14828 ****               0 ****  **** 
   2422  MOH          14834 ****               0 ****  **** 
   2423  MOH          14840 ****               0 ****  **** 
   2424  MOH          14846 ****               0 ****  **** 
   2425  MOH          14852 ****               0 ****  **** 
   2426  MOH          14858 ****               0 ****  **** 
   2427  MOH          14864 ****               0 ****  **** 
   2428  MOH          14870 ****               0 ****  **** 
   2429  MOH          14876 ****               0 ****  **** 
   2430  MOH          14882 ****               0 ****  **** 
   2431  MOH          14888 ****               0 ****  **** 
   2432  MOH          14894 ****               0 ****  **** 
   2433  MOH          14900 ****               0 ****  **** 
   2434  MOH          14906 ****               0 ****  **** 
   2435  MOH          14912 ****               0 ****  **** 
   2436  MOH          14918 ****               0 ****  **** 
   2437  MOH          14924 ****               0 ****  **** 
   2438  MOH          14930 ****               0 ****  **** 
   2439  MOH          14936 ****               0 ****  **** 
   2440  MOH          14942 ****               0 ****  **** 
   2441  MOH          14948 ****               0 ****  **** 
   2442  MOH          14954 ****               0 ****  **** 
   2443  MOH          14960 ****               0 ****  **** 
   2444  MOH          14966 ****               0 ****  **** 
   2445  MOH          14972 ****               0 ****  **** 
   2446  MOH          14978 ****               0 ****  **** 
   2447  MOH          14984 ****               0 ****  **** 
   2448  MOH          14990 ****               0 ****  **** 
   2449  MOH          14996 ****               0 ****  **** 
   2450  MOH          15002 ****               0 ****  **** 
   2451  MOH          15008 ****               0 ****  **** 
   2452  MOH          15014 ****               0 ****  **** 
   2453  MOH          15020 ****               0 ****  **** 
   2454  MOH          15026 ****               0 ****  **** 
   2455  MOH          15032 ****               0 ****  **** 
   2456  MOH          15038 ****               0 ****  **** 
   2457  MOH          15044 ****               0 ****  **** 
   2458  MOH          15050 ****               0 ****  **** 
   2459  MOH          15056 ****               0 ****  **** 
   2460  MOH          15062 ****               0 ****  **** 
   2461  MOH          15068 ****               0 ****  **** 
   2462  MOH          15074 ****               0 ****  **** 
   2463  MOH          15080 ****               0 ****  **** 
   2464  MOH          15086 ****               0 ****  **** 
   2465  MOH          15092 ****               0 ****  **** 
   2466  MOH          15098 ****               0 ****  **** 
   2467  MOH          15104 ****               0 ****  **** 
   2468  MOH          15110 ****               0 ****  **** 
   2469  MOH          15116 ****               0 ****  **** 
   2470  MOH          15122 ****               0 ****  **** 
   2471  MOH          15128 ****               0 ****  **** 
   2472  MOH          15134 ****               0 ****  **** 
   2473  MOH          15140 ****               0 ****  **** 
   2474  MOH          15146 ****               0 ****  **** 
   2475  MOH          15152 ****               0 ****  **** 
   2476  MOH          15158 ****               0 ****  **** 
   2477  MOH          15164 ****               0 ****  **** 
   2478  MOH          15170 ****               0 ****  **** 
   2479  MOH          15176 ****               0 ****  **** 
   2480  MOH          15182 ****               0 ****  **** 
   2481  MOH          15188 ****               0 ****  **** 
   2482  MOH          15194 ****               0 ****  **** 
   2483  MOH          15200 ****               0 ****  **** 
   2484  MOH          15206 ****               0 ****  **** 
   2485  MOH          15212 ****               0 ****  **** 
   2486  MOH          15218 ****               0 ****  **** 
   2487  MOH          15224 ****               0 ****  **** 
   2488  MOH          15230 ****               0 ****  **** 
   2489  MOH          15236 ****               0 ****  **** 
   2490  MOH          15242 ****               0 ****  **** 
   2491  MOH          15248 ****               0 ****  **** 
   2492  MOH          15254 ****               0 ****  **** 
   2493  MOH          15260 ****               0 ****  **** 
   2494  MOH          15266 ****               0 ****  **** 
   2495  MOH          15272 ****               0 ****  **** 
   2496  MOH          15278 ****               0 ****  **** 
   2497  MOH          15284 ****               0 ****  **** 
   2498  MOH          15290 ****               0 ****  **** 
   2499  MOH          15296 ****               0 ****  **** 
   2500  MOH          15302 ****               0 ****  **** 
   2501  MOH          15308 ****               0 ****  **** 
   2502  MOH          15314 ****               0 ****  **** 
   2503  MOH          15320 ****               0 ****  **** 
   2504  MOH          15326 ****               0 ****  **** 
   2505  MOH          15332 ****               0 ****  **** 
   2506  MOH          15338 ****               0 ****  **** 
   2507  MOH          15344 ****               0 ****  **** 
   2508  MOH          15350 ****               0 ****  **** 
   2509  MOH          15356 ****               0 ****  **** 
   2510  MOH          15362 ****               0 ****  **** 
   2511  MOH          15368 ****               0 ****  **** 
   2512  MOH          15374 ****               0 ****  **** 
   2513  MOH          15380 ****               0 ****  **** 
   2514  MOH          15386 ****               0 ****  **** 
   2515  MOH          15392 ****               0 ****  **** 
   2516  MOH          15398 ****               0 ****  **** 
   2517  MOH          15404 ****               0 ****  **** 
   2518  MOH          15410 ****               0 ****  **** 
   2519  MOH          15416 ****               0 ****  **** 
   2520  MOH          15422 ****               0 ****  **** 
   2521  MOH          15428 ****               0 ****  **** 
   2522  MOH          15434 ****               0 ****  **** 
   2523  MOH          15440 ****               0 ****  **** 
   2524  MOH          15446 ****               0 ****  **** 
   2525  MOH          15452 ****               0 ****  **** 
   2526  MOH          15458 ****               0 ****  **** 
   2527  MOH          15464 ****               0 ****  **** 
   2528  MOH          15470 ****               0 ****  **** 
   2529  MOH          15476 ****               0 ****  **** 
   2530  MOH          15482 ****               0 ****  **** 
   2531  MOH          15488 ****               0 ****  **** 
   2532  MOH          15494 ****               0 ****  **** 
   2533  MOH          15500 ****               0 ****  **** 
   2534  MOH          15506 ****               0 ****  **** 
   2535  MOH          15512 ****               0 ****  **** 
   2536  MOH          15518 ****               0 ****  **** 
   2537  MOH          15524 ****               0 ****  **** 
   2538  MOH          15530 ****               0 ****  **** 
   2539  MOH          15536 ****               0 ****  **** 
   2540  MOH          15542 ****               0 ****  **** 
   2541  MOH          15548 ****               0 ****  **** 
   2542  MOH          15554 ****               0 ****  **** 
   2543  MOH          15560 ****               0 ****  **** 
   2544  MOH          15566 ****               0 ****  **** 
   2545  MOH          15572 ****               0 ****  **** 
   2546  MOH          15578 ****               0 ****  **** 
   2547  MOH          15584 ****               0 ****  **** 
   2548  MOH          15590 ****               0 ****  **** 
   2549  MOH          15596 ****               0 ****  **** 
   2550  MOH          15602 ****               0 ****  **** 
   2551  MOH          15608 ****               0 ****  **** 
   2552  MOH          15614 ****               0 ****  **** 
   2553  MOH          15620 ****               0 ****  **** 
   2554  MOH          15626 ****               0 ****  **** 
   2555  MOH          15632 ****               0 ****  **** 
   2556  MOH          15638 ****               0 ****  **** 
   2557  MOH          15644 ****               0 ****  **** 
   2558  MOH          15650 ****               0 ****  **** 
   2559  MOH          15656 ****               0 ****  **** 
   2560  MOH          15662 ****               0 ****  **** 
   2561  MOH          15668 ****               0 ****  **** 
   2562  MOH          15674 ****               0 ****  **** 
   2563  MOH          15680 ****               0 ****  **** 
   2564  MOH          15686 ****               0 ****  **** 
   2565  MOH          15692 ****               0 ****  **** 
   2566  MOH          15698 ****               0 ****  **** 
   2567  MOH          15704 ****               0 ****  **** 
   2568  MOH          15710 ****               0 ****  **** 
   2569  MOH          15716 ****               0 ****  **** 
   2570  MOH          15722 ****               0 ****  **** 
   2571  MOH          15728 ****               0 ****  **** 
   2572  MOH          15734 ****               0 ****  **** 
   2573  MOH          15740 ****               0 ****  **** 
   2574  MOH          15746 ****               0 ****  **** 
   2575  MOH          15752 ****               0 ****  **** 
   2576  MOH          15758 ****               0 ****  **** 
   2577  MOH          15764 ****               0 ****  **** 
   2578  MOH          15770 ****               0 ****  **** 
   2579  MOH          15776 ****               0 ****  **** 
   2580  MOH          15782 ****               0 ****  **** 
   2581  MOH          15788 ****               0 ****  **** 
   2582  MOH          15794 ****               0 ****  **** 
   2583  MOH          15800 ****               0 ****  **** 
   2584  MOH          15806 ****               0 ****  **** 
   2585  MOH          15812 ****               0 ****  **** 
   2586  MOH          15818 ****               0 ****  **** 
   2587  MOH          15824 ****               0 ****  **** 
   2588  MOH          15830 ****               0 ****  **** 
   2589  MOH          15836 ****               0 ****  **** 
   2590  MOH          15842 ****               0 ****  **** 
   2591  MOH          15848 ****               0 ****  **** 
   2592  MOH          15854 ****               0 ****  **** 
   2593  MOH          15860 ****               0 ****  **** 
   2594  MOH          15866 ****               0 ****  **** 
   2595  MOH          15872 ****               0 ****  **** 
   2596  MOH          15878 ****               0 ****  **** 
   2597  MOH          15884 ****               0 ****  **** 
   2598  MOH          15890 ****               0 ****  **** 
   2599  MOH          15896 ****               0 ****  **** 
   2600  MOH          15902 ****               0 ****  **** 
   2601  MOH          15908 ****               0 ****  **** 
   2602  MOH          15914 ****               0 ****  **** 
   2603  MOH          15920 ****               0 ****  **** 
   2604  MOH          15926 ****               0 ****  **** 
   2605  MOH          15932 ****               0 ****  **** 
   2606  MOH          15938 ****               0 ****  **** 
   2607  MOH          15944 ****               0 ****  **** 
   2608  MOH          15950 ****               0 ****  **** 
   2609  MOH          15956 ****               0 ****  **** 
   2610  MOH          15962 ****               0 ****  **** 
   2611  MOH          15968 ****               0 ****  **** 
   2612  MOH          15974 ****               0 ****  **** 
   2613  MOH          15980 ****               0 ****  **** 
   2614  MOH          15986 ****               0 ****  **** 
   2615  MOH          15992 ****               0 ****  **** 
   2616  MOH          15998 ****               0 ****  **** 
   2617  MOH          16004 ****               0 ****  **** 
   2618  MOH          16010 ****               0 ****  **** 
   2619  MOH          16016 ****               0 ****  **** 
   2620  MOH          16022 ****               0 ****  **** 
   2621  MOH          16028 ****               0 ****  **** 
   2622  MOH          16034 ****               0 ****  **** 
   2623  MOH          16040 ****               0 ****  **** 
   2624  MOH          16046 ****               0 ****  **** 
   2625  MOH          16052 ****               0 ****  **** 
   2626  MOH          16058 ****               0 ****  **** 
   2627  MOH          16064 ****               0 ****  **** 
   2628  MOH          16070 ****               0 ****  **** 
   2629  MOH          16076 ****               0 ****  **** 
   2630  MOH          16082 ****               0 ****  **** 
   2631  MOH          16088 ****               0 ****  **** 
   2632  MOH          16094 ****               0 ****  **** 
   2633  MOH          16100 ****               0 ****  **** 
   2634  MOH          16106 ****               0 ****  **** 
   2635  MOH          16112 ****               0 ****  **** 
   2636  MOH          16118 ****               0 ****  **** 
   2637  MOH          16124 ****               0 ****  **** 
   2638  MOH          16130 ****               0 ****  **** 
   2639  MOH          16136 ****               0 ****  **** 
   2640  MOH          16142 ****               0 ****  **** 
   2641  MOH          16148 ****               0 ****  **** 
   2642  MOH          16154 ****               0 ****  **** 
   2643  MOH          16160 ****               0 ****  **** 
   2644  MOH          16166 ****               0 ****  **** 
   2645  MOH          16172 ****               0 ****  **** 
   2646  MOH          16178 ****               0 ****  **** 
   2647  MOH          16184 ****               0 ****  **** 
   2648  MOH          16190 ****               0 ****  **** 
   2649  MOH          16196 ****               0 ****  **** 
   2650  MOH          16202 ****               0 ****  **** 
   2651  MOH          16208 ****               0 ****  **** 
   2652  MOH          16214 ****               0 ****  **** 
   2653  MOH          16220 ****               0 ****  **** 
   2654  MOH          16226 ****               0 ****  **** 
   2655  MOH          16232 ****               0 ****  **** 
   2656  MOH          16238 ****               0 ****  **** 
   2657  MOH          16244 ****               0 ****  **** 
   2658  MOH          16250 ****               0 ****  **** 
   2659  MOH          16256 ****               0 ****  **** 
   2660  MOH          16262 ****               0 ****  **** 
   2661  MOH          16268 ****               0 ****  **** 
   2662  MOH          16274 ****               0 ****  **** 
   2663  MOH          16280 ****               0 ****  **** 
   2664  MOH          16286 ****               0 ****  **** 
   2665  MOH          16292 ****               0 ****  **** 
   2666  MOH          16298 ****               0 ****  **** 
   2667  MOH          16304 ****               0 ****  **** 
   2668  MOH          16310 ****               0 ****  **** 
   2669  MOH          16316 ****               0 ****  **** 
   2670  MOH          16322 ****               0 ****  **** 
   2671  MOH          16328 ****               0 ****  **** 
   2672  MOH          16334 ****               0 ****  **** 
   2673  MOH          16340 ****               0 ****  **** 
   2674  MOH          16346 ****               0 ****  **** 
   2675  MOH          16352 ****               0 ****  **** 
   2676  MOH          16358 ****               0 ****  **** 
   2677  MOH          16364 ****               0 ****  **** 
   2678  MOH          16370 ****               0 ****  **** 
   2679  MOH          16376 ****               0 ****  **** 
   2680  MOH          16382 ****               0 ****  **** 
   2681  MOH          16388 ****               0 ****  **** 
   2682  MOH          16394 ****               0 ****  **** 
   2683  MOH          16400 ****               0 ****  **** 
   2684  MOH          16406 ****               0 ****  **** 
   2685  MOH          16412 ****               0 ****  **** 
   2686  MOH          16418 ****               0 ****  **** 
   2687  MOH          16424 ****               0 ****  **** 
   2688  MOH          16430 ****               0 ****  **** 
   2689  MOH          16436 ****               0 ****  **** 
   2690  MOH          16442 ****               0 ****  **** 
   2691  MOH          16448 ****               0 ****  **** 
   2692  MOH          16454 ****               0 ****  **** 
   2693  MOH          16460 ****               0 ****  **** 
   2694  MOH          16466 ****               0 ****  **** 
   2695  MOH          16472 ****               0 ****  **** 
   2696  MOH          16478 ****               0 ****  **** 
   2697  MOH          16484 ****               0 ****  **** 
   2698  MOH          16490 ****               0 ****  **** 
   2699  MOH          16496 ****               0 ****  **** 
   2700  MOH          16502 ****               0 ****  **** 
   2701  MOH          16508 ****               0 ****  **** 
   2702  MOH          16514 ****               0 ****  **** 
   2703  MOH          16520 ****               0 ****  **** 
   2704  MOH          16526 ****               0 ****  **** 
   2705  MOH          16532 ****               0 ****  **** 
   2706  MOH          16538 ****               0 ****  **** 
   2707  MOH          16544 ****               0 ****  **** 
   2708  MOH          16550 ****               0 ****  **** 
   2709  MOH          16556 ****               0 ****  **** 
   2710  MOH          16562 ****               0 ****  **** 
   2711  MOH          16568 ****               0 ****  **** 
   2712  MOH          16574 ****               0 ****  **** 
   2713  MOH          16580 ****               0 ****  **** 
   2714  MOH          16586 ****               0 ****  **** 
   2715  MOH          16592 ****               0 ****  **** 
   2716  MOH          16598 ****               0 ****  **** 
   2717  MOH          16604 ****               0 ****  **** 
   2718  MOH          16610 ****               0 ****  **** 
   2719  MOH          16616 ****               0 ****  **** 
   2720  MOH          16622 ****               0 ****  **** 
   2721  MOH          16628 ****               0 ****  **** 
   2722  MOH          16634 ****               0 ****  **** 
   2723  MOH          16640 ****               0 ****  **** 
   2724  MOH          16646 ****               0 ****  **** 
   2725  MOH          16652 ****               0 ****  **** 
   2726  MOH          16658 ****               0 ****  **** 
   2727  MOH          16664 ****               0 ****  **** 
   2728  MOH          16670 ****               0 ****  **** 
   2729  MOH          16676 ****               0 ****  **** 
   2730  MOH          16682 ****               0 ****  **** 
   2731  MOH          16688 ****               0 ****  **** 
   2732  MOH          16694 ****               0 ****  **** 
   2733  MOH          16700 ****               0 ****  **** 
   2734  MOH          16706 ****               0 ****  **** 
   2735  MOH          16712 ****               0 ****  **** 
   2736  MOH          16718 ****               0 ****  **** 
   2737  MOH          16724 ****               0 ****  **** 
   2738  MOH          16730 ****               0 ****  **** 
   2739  MOH          16736 ****               0 ****  **** 
   2740  MOH          16742 ****               0 ****  **** 
   2741  MOH          16748 ****               0 ****  **** 
   2742  MOH          16754 ****               0 ****  **** 
   2743  MOH          16760 ****               0 ****  **** 
   2744  MOH          16766 ****               0 ****  **** 
   2745  MOH          16772 ****               0 ****  **** 
   2746  MOH          16778 ****               0 ****  **** 
   2747  MOH          16784 ****               0 ****  **** 
   2748  MOH          16790 ****               0 ****  **** 
   2749  MOH          16796 ****               0 ****  **** 
   2750  MOH          16802 ****               0 ****  **** 
   2751  MOH          16808 ****               0 ****  **** 
   2752  MOH          16814 ****               0 ****  **** 
   2753  MOH          16820 ****               0 ****  **** 
   2754  MOH          16826 ****               0 ****  **** 
   2755  MOH          16832 ****               0 ****  **** 
   2756  MOH          16838 ****               0 ****  **** 
   2757  MOH          16844 ****               0 ****  **** 
   2758  MOH          16850 ****               0 ****  **** 
   2759  MOH          16856 ****               0 ****  **** 
   2760  MOH          16862 ****               0 ****  **** 
   2761  MOH          16868 ****               0 ****  **** 
   2762  MOH          16874 ****               0 ****  **** 
   2763  MOH          16880 ****               0 ****  **** 
   2764  MOH          16886 ****               0 ****  **** 
   2765  MOH          16892 ****               0 ****  **** 
   2766  MOH          16898 ****               0 ****  **** 
   2767  MOH          16904 ****               0 ****  **** 
   2768  MOH          16910 ****               0 ****  **** 
   2769  MOH          16916 ****               0 ****  **** 
   2770  MOH          16922 ****               0 ****  **** 
   2771  MOH          16928 ****               0 ****  **** 
   2772  MOH          16934 ****               0 ****  **** 
   2773  MOH          16940 ****               0 ****  **** 
   2774  MOH          16946 ****               0 ****  **** 
   2775  MOH          16952 ****               0 ****  **** 
   2776  MOH          16958 ****               0 ****  **** 
   2777  MOH          16964 ****               0 ****  **** 
   2778  MOH          16970 ****               0 ****  **** 
   2779  MOH          16976 ****               0 ****  **** 
   2780  MOH          16982 ****               0 ****  **** 
   2781  MOH          16988 ****               0 ****  **** 
   2782  MOH          16994 ****               0 ****  **** 
   2783  MOH          17000 ****               0 ****  **** 
   2784  MOH          17006 ****               0 ****  **** 
   2785  MOH          17012 ****               0 ****  **** 
   2786  MOH          17018 ****               0 ****  **** 
   2787  MOH          17024 ****               0 ****  **** 
   2788  MOH          17030 ****               0 ****  **** 
   2789  MOH          17036 ****               0 ****  **** 
   2790  MOH          17042 ****               0 ****  **** 
   2791  MOH          17048 ****               0 ****  **** 
   2792  MOH          17054 ****               0 ****  **** 
   2793  MOH          17060 ****               0 ****  **** 
   2794  MOH          17066 ****               0 ****  **** 
   2795  MOH          17072 ****               0 ****  **** 
   2796  MOH          17078 ****               0 ****  **** 
   2797  MOH          17084 ****               0 ****  **** 
   2798  MOH          17090 ****               0 ****  **** 
   2799  MOH          17096 ****               0 ****  **** 
   2800  MOH          17102 ****               0 ****  **** 
   2801  MOH          17108 ****               0 ****  **** 
   2802  MOH          17114 ****               0 ****  **** 
   2803  MOH          17120 ****               0 ****  **** 
   2804  MOH          17126 ****               0 ****  **** 
   2805  MOH          17132 ****               0 ****  **** 
   2806  MOH          17138 ****               0 ****  **** 
   2807  MOH          17144 ****               0 ****  **** 
   2808  MOH          17150 ****               0 ****  **** 
   2809  MOH          17156 ****               0 ****  **** 
   2810  MOH          17162 ****               0 ****  **** 
   2811  MOH          17168 ****               0 ****  **** 
   2812  MOH          17174 ****               0 ****  **** 
   2813  MOH          17180 ****               0 ****  **** 
   2814  MOH          17186 ****               0 ****  **** 
   2815  MOH          17192 ****               0 ****  **** 
   2816  MOH          17198 ****               0 ****  **** 
   2817  MOH          17204 ****               0 ****  **** 
   2818  MOH          17210 ****               0 ****  **** 
   2819  MOH          17216 ****               0 ****  **** 
   2820  MOH          17222 ****               0 ****  **** 
   2821  MOH          17228 ****               0 ****  **** 
   2822  MOH          17234 ****               0 ****  **** 
   2823  MOH          17240 ****               0 ****  **** 
   2824  MOH          17246 ****               0 ****  **** 
   2825  MOH          17252 ****               0 ****  **** 
   2826  MOH          17258 ****               0 ****  **** 
   2827  MOH          17264 ****               0 ****  **** 
   2828  MOH          17270 ****               0 ****  **** 
   2829  MOH          17276 ****               0 ****  **** 
   2830  MOH          17282 ****               0 ****  **** 
   2831  MOH          17288 ****               0 ****  **** 
   2832  MOH          17294 ****               0 ****  **** 
   2833  MOH          17300 ****               0 ****  **** 
   2834  MOH          17306 ****               0 ****  **** 
   2835  MOH          17312 ****               0 ****  **** 
   2836  MOH          17318 ****               0 ****  **** 
   2837  MOH          17324 ****               0 ****  **** 
   2838  MOH          17330 ****               0 ****  **** 
   2839  MOH          17336 ****               0 ****  **** 
   2840  MOH          17342 ****               0 ****  **** 
   2841  MOH          17348 ****               0 ****  **** 
   2842  MOH          17354 ****               0 ****  **** 
   2843  MOH          17360 ****               0 ****  **** 
   2844  MOH          17366 ****               0 ****  **** 
   2845  MOH          17372 ****               0 ****  **** 
   2846  MOH          17378 ****               0 ****  **** 
   2847  MOH          17384 ****               0 ****  **** 
   2848  MOH          17390 ****               0 ****  **** 
   2849  MOH          17396 ****               0 ****  **** 
   2850  MOH          17402 ****               0 ****  **** 
   2851  MOH          17408 ****               0 ****  **** 
   2852  MOH          17414 ****               0 ****  **** 
   2853  MOH          17420 ****               0 ****  **** 
   2854  MOH          17426 ****               0 ****  **** 
   2855  MOH          17432 ****               0 ****  **** 
   2856  MOH          17438 ****               0 ****  **** 
   2857  MOH          17444 ****               0 ****  **** 
   2858  MOH          17450 ****               0 ****  **** 
   2859  MOH          17456 ****               0 ****  **** 
   2860  MOH          17462 ****               0 ****  **** 
   2861  MOH          17468 ****               0 ****  **** 
   2862  MOH          17474 ****               0 ****  **** 
   2863  MOH          17480 ****               0 ****  **** 
   2864  MOH          17486 ****               0 ****  **** 
   2865  MOH          17492 ****               0 ****  **** 
   2866  MOH          17498 ****               0 ****  **** 
   2867  MOH          17504 ****               0 ****  **** 
   2868  MOH          17510 ****               0 ****  **** 
   2869  MOH          17516 ****               0 ****  **** 
   2870  MOH          17522 ****               0 ****  **** 
   2871  MOH          17528 ****               0 ****  **** 
   2872  MOH          17534 ****               0 ****  **** 
   2873  MOH          17540 ****               0 ****  **** 
   2874  MOH          17546 ****               0 ****  **** 
   2875  MOH          17552 ****               0 ****  **** 
   2876  MOH          17558 ****               0 ****  **** 
   2877  MOH          17564 ****               0 ****  **** 
   2878  MOH          17570 ****               0 ****  **** 
   2879  MOH          17576 ****               0 ****  **** 
   2880  MOH          17582 ****               0 ****  **** 
   2881  MOH          17588 ****               0 ****  **** 
   2882  MOH          17594 ****               0 ****  **** 
   2883  MOH          17600 ****               0 ****  **** 
   2884  MOH          17606 ****               0 ****  **** 
   2885  MOH          17612 ****               0 ****  **** 
   2886  MOH          17618 ****               0 ****  **** 
   2887  MOH          17624 ****               0 ****  **** 
   2888  MOH          17630 ****               0 ****  **** 
   2889  MOH          17636 ****               0 ****  **** 
   2890  MOH          17642 ****               0 ****  **** 
   2891  MOH          17648 ****               0 ****  **** 
   2892  MOH          17654 ****               0 ****  **** 
   2893  MOH          17660 ****               0 ****  **** 
   2894  MOH          17666 ****               0 ****  **** 
   2895  MOH          17672 ****               0 ****  **** 
   2896  MOH          17678 ****               0 ****  **** 
   2897  MOH          17684 ****               0 ****  **** 
   2898  MOH          17690 ****               0 ****  **** 
   2899  MOH          17696 ****               0 ****  **** 
   2900  MOH          17702 ****               0 ****  **** 
   2901  MOH          17708 ****               0 ****  **** 
   2902  MOH          17714 ****               0 ****  **** 
   2903  MOH          17720 ****               0 ****  **** 
   2904  MOH          17726 ****               0 ****  **** 
   2905  MOH          17732 ****               0 ****  **** 
   2906  MOH          17738 ****               0 ****  **** 
   2907  MOH          17744 ****               0 ****  **** 
   2908  MOH          17750 ****               0 ****  **** 
   2909  MOH          17756 ****               0 ****  **** 
   2910  MOH          17762 ****               0 ****  **** 
   2911  MOH          17768 ****               0 ****  **** 
   2912  MOH          17774 ****               0 ****  **** 
   2913  MOH          17780 ****               0 ****  **** 
   2914  MOH          17786 ****               0 ****  **** 
   2915  MOH          17792 ****               0 ****  **** 
   2916  MOH          17798 ****               0 ****  **** 
   2917  MOH          17804 ****               0 ****  **** 
   2918  MOH          17810 ****               0 ****  **** 
   2919  MOH          17816 ****               0 ****  **** 
   2920  MOH          17822 ****               0 ****  **** 
   2921  MOH          17828 ****               0 ****  **** 
   2922  MOH          17834 ****               0 ****  **** 
   2923  MOH          17840 ****               0 ****  **** 
   2924  MOH          17846 ****               0 ****  **** 
   2925  MOH          17852 ****               0 ****  **** 
   2926  MOH          17858 ****               0 ****  **** 
   2927  MOH          17864 ****               0 ****  **** 
   2928  MOH          17870 ****               0 ****  **** 
   2929  MOH          17876 ****               0 ****  **** 
   2930  MOH          17882 ****               0 ****  **** 
   2931  MOH          17888 ****               0 ****  **** 
   2932  MOH          17894 ****               0 ****  **** 
   2933  MOH          17900 ****               0 ****  **** 
   2934  MOH          17906 ****               0 ****  **** 
   2935  MOH          17912 ****               0 ****  **** 
   2936  MOH          17918 ****               0 ****  **** 
   2937  MOH          17924 ****               0 ****  **** 
   2938  MOH          17930 ****               0 ****  **** 
   2939  MOH          17936 ****               0 ****  **** 
   2940  MOH          17942 ****               0 ****  **** 
   2941  MOH          17948 ****               0 ****  **** 
   2942  MOH          17954 ****               0 ****  **** 
   2943  MOH          17960 ****               0 ****  **** 
   2944  MOH          17966 ****               0 ****  **** 
   2945  MOH          17972 ****               0 ****  **** 
   2946  MOH          17978 ****               0 ****  **** 
   2947  MOH          17984 ****               0 ****  **** 
   2948  MOH          17990 ****               0 ****  **** 
   2949  MOH          17996 ****               0 ****  **** 
   2950  MOH          18002 ****               0 ****  **** 
   2951  MOH          18008 ****               0 ****  **** 
   2952  MOH          18014 ****               0 ****  **** 
   2953  MOH          18020 ****               0 ****  **** 
   2954  MOH          18026 ****               0 ****  **** 
   2955  MOH          18032 ****               0 ****  **** 
   2956  MOH          18038 ****               0 ****  **** 
   2957  MOH          18044 ****               0 ****  **** 
   2958  MOH          18050 ****               0 ****  **** 
   2959  MOH          18056 ****               0 ****  **** 
   2960  MOH          18062 ****               0 ****  **** 
   2961  MOH          18068 ****               0 ****  **** 
   2962  MOH          18074 ****               0 ****  **** 
   2963  MOH          18080 ****               0 ****  **** 
   2964  MOH          18086 ****               0 ****  **** 
   2965  MOH          18092 ****               0 ****  **** 
   2966  MOH          18098 ****               0 ****  **** 
   2967  MOH          18104 ****               0 ****  **** 
   2968  MOH          18110 ****               0 ****  **** 
   2969  MOH          18116 ****               0 ****  **** 
   2970  MOH          18122 ****               0 ****  **** 
   2971  MOH          18128 ****               0 ****  **** 
   2972  MOH          18134 ****               0 ****  **** 
   2973  MOH          18140 ****               0 ****  **** 
   2974  MOH          18146 ****               0 ****  **** 
   2975  MOH          18152 ****               0 ****  **** 
   2976  MOH          18158 ****               0 ****  **** 
   2977  MOH          18164 ****               0 ****  **** 
   2978  MOH          18170 ****               0 ****  **** 
   2979  MOH          18176 ****               0 ****  **** 
   2980  MOH          18182 ****               0 ****  **** 
   2981  MOH          18188 ****               0 ****  **** 
   2982  MOH          18194 ****               0 ****  **** 
   2983  MOH          18200 ****               0 ****  **** 
   2984  MOH          18206 ****               0 ****  **** 
   2985  MOH          18212 ****               0 ****  **** 
   2986  MOH          18218 ****               0 ****  **** 
   2987  MOH          18224 ****               0 ****  **** 
   2988  MOH          18230 ****               0 ****  **** 
   2989  MOH          18236 ****               0 ****  **** 
   2990  MOH          18242 ****               0 ****  **** 
   2991  MOH          18248 ****               0 ****  **** 
   2992  MOH          18254 ****               0 ****  **** 
   2993  MOH          18260 ****               0 ****  **** 
   2994  MOH          18266 ****               0 ****  **** 
   2995  MOH          18272 ****               0 ****  **** 
   2996  MOH          18278 ****               0 ****  **** 
   2997  MOH          18284 ****               0 ****  **** 
   2998  MOH          18290 ****               0 ****  **** 
   2999  MOH          18296 ****               0 ****  **** 
   3000  MOH          18302 ****               0 ****  **** 
   3001  MOH          18308 ****               0 ****  **** 
   3002  MOH          18314 ****               0 ****  **** 
   3003  MOH          18320 ****               0 ****  **** 
   3004  MOH          18326 ****               0 ****  **** 
   3005  MOH          18332 ****               0 ****  **** 
   3006  MOH          18338 ****               0 ****  **** 
   3007  MOH          18344 ****               0 ****  **** 
   3008  MOH          18350 ****               0 ****  **** 
   3009  MOH          18356 ****               0 ****  **** 
   3010  MOH          18362 ****               0 ****  **** 
   3011  MOH          18368 ****               0 ****  **** 
   3012  MOH          18374 ****               0 ****  **** 
   3013  MOH          18380 ****               0 ****  **** 
   3014  MOH          18386 ****               0 ****  **** 
   3015  MOH          18392 ****               0 ****  **** 
   3016  MOH          18398 ****               0 ****  **** 
   3017  MOH          18404 ****               0 ****  **** 
   3018  MOH          18410 ****               0 ****  **** 
   3019  MOH          18416 ****               0 ****  **** 
   3020  MOH          18422 ****               0 ****  **** 
   3021  MOH          18428 ****               0 ****  **** 
   3022  MOH          18434 ****               0 ****  **** 
   3023  MOH          18440 ****               0 ****  **** 
   3024  MOH          18446 ****               0 ****  **** 
   3025  MOH          18452 ****               0 ****  **** 
   3026  MOH          18458 ****               0 ****  **** 
   3027  MOH          18464 ****               0 ****  **** 
   3028  MOH          18470 ****               0 ****  **** 
   3029  MOH          18476 ****               0 ****  **** 
   3030  MOH          18482 ****               0 ****  **** 
   3031  MOH          18488 ****               0 ****  **** 
   3032  MOH          18494 ****               0 ****  **** 
   3033  MOH          18500 ****               0 ****  **** 
   3034  MOH          18506 ****               0 ****  **** 
   3035  MOH          18512 ****               0 ****  **** 
   3036  MOH          18518 ****               0 ****  **** 
   3037  MOH          18524 ****               0 ****  **** 
   3038  MOH          18530 ****               0 ****  **** 
   3039  MOH          18536 ****               0 ****  **** 
   3040  MOH          18542 ****               0 ****  **** 
   3041  MOH          18548 ****               0 ****  **** 
   3042  MOH          18554 ****               0 ****  **** 
   3043  MOH          18560 ****               0 ****  **** 
   3044  MOH          18566 ****               0 ****  **** 
   3045  MOH          18572 ****               0 ****  **** 
   3046  MOH          18578 ****               0 ****  **** 
   3047  MOH          18584 ****               0 ****  **** 
   3048  MOH          18590 ****               0 ****  **** 
   3049  MOH          18596 ****               0 ****  **** 
   3050  MOH          18602 ****               0 ****  **** 
   3051  MOH          18608 ****               0 ****  **** 
   3052  MOH          18614 ****               0 ****  **** 
   3053  MOH          18620 ****               0 ****  **** 
   3054  MOH          18626 ****               0 ****  **** 
   3055  MOH          18632 ****               0 ****  **** 
   3056  MOH          18638 ****               0 ****  **** 
   3057  MOH          18644 ****               0 ****  **** 
   3058  MOH          18650 ****               0 ****  **** 
   3059  MOH          18656 ****               0 ****  **** 
   3060  MOH          18662 ****               0 ****  **** 
   3061  MOH          18668 ****               0 ****  **** 
   3062  MOH          18674 ****               0 ****  **** 
   3063  MOH          18680 ****               0 ****  **** 
   3064  MOH          18686 ****               0 ****  **** 
   3065  MOH          18692 ****               0 ****  **** 
   3066  MOH          18698 ****               0 ****  **** 
   3067  MOH          18704 ****               0 ****  **** 
   3068  MOH          18710 ****               0 ****  **** 
   3069  MOH          18716 ****               0 ****  **** 
   3070  MOH          18722 ****               0 ****  **** 
   3071  MOH          18728 ****               0 ****  **** 
   3072  MOH          18734 ****               0 ****  **** 
   3073  MOH          18740 ****               0 ****  **** 
   3074  MOH          18746 ****               0 ****  **** 
   3075  MOH          18752 ****               0 ****  **** 
   3076  MOH          18758 ****               0 ****  **** 
   3077  MOH          18764 ****               0 ****  **** 
   3078  MOH          18770 ****               0 ****  **** 
   3079  MOH          18776 ****               0 ****  **** 
