@<TRIPOS>MOLECULE
XAP
12289 10303  1997     0     1 
SMALL
USER_CHARGES
@<TRIPOS>ATOM
  1 O1     -2.356085   16.901368    3.746600 O     1 XAP    -0.5795 ****
  2 H1     -1.639367   17.208343    3.134912 H     1 XAP     0.4237 ****
  3 C2     -1.846798   15.933353    4.602693 C     1 XAP     0.6227 ****
  4 O8     -2.576571   15.411598    5.452927 O     1 XAP    -0.4863 ****
  5 C3     -0.411242   15.522758    4.494988 C     1 XAP    -0.1745 ****
  6 H2     -0.262599   15.017363    3.530476 H     1 XAP     0.0736 ****
  7 H3      0.217934   16.423726    4.481063 H     1 XAP     0.0736 ****
  8 C4     -0.030006   14.590158    5.649085 C     1 XAP    -0.0745 ****
  9 H4     -0.174216   15.110290    6.606408 H     1 XAP     0.0652 ****
 10 H5     -0.662753   13.690830    5.620118 H     1 XAP     0.0652 ****
 11 C5      1.440072   14.185543    5.500144 C     1 XAP    -0.1585 ****
 12 H6      1.611189   13.675927    4.541598 H     1 XAP     0.0746 ****
 13 H7      2.094735   15.069467    5.509802 H     1 XAP     0.0746 ****
 14 C4      1.862828   13.238735    6.617019 C     2 rAPO    0.6677 ****
 15 O6      3.003538   12.772769    6.713720 O     2 rAPO   -0.6236 ****
 16 N5      0.899309   12.936543    7.506977 N     2 rAPO   -0.5695 ****
 17 H8     -0.001643   13.333954    7.378923 H     2 rAPO    0.3203 ****
 18 C7      1.103395   12.057406    8.667308 C     2 rAPO    0.0478 ****
 19 C10     2.351980   12.405942    9.518870 C     2 rAPO   -0.0972 ****
 20 C11     2.256425   13.850984   10.042629 C     2 rAPO   -0.0113 ****
 21 S12     3.733844   14.235170   11.016978 S     2 rAPO   -0.3064 ****
 22 C13     3.837641   13.145855   12.457498 C     2 rAPO   -0.0033 ****
 23 C14     5.114014   13.476057   13.243667 C     2 rAPO   -0.1174 ****
 24 C15     5.172368   12.575374   14.434213 C     2 rAPO    0.4096 ****
 25 C16     5.688053   11.214098   14.298411 C     2 rAPO   -0.2427 ****
 26 C17     5.733264   10.427743   15.366367 C     2 rAPO   -0.0898 ****
 27 C19     5.268596   10.945296   16.643214 C     2 rAPO   -0.2487 ****
 28 C21     4.807787   12.193028   16.714234 C     2 rAPO    0.4002 ****
 29 N23     4.770881   13.003632   15.564796 N     2 rAPO   -0.6664 ****
 30 H21     4.467408   12.577299   17.641638 H     2 rAPO    0.0222 ****
 31 H20     5.295386   10.336034   17.510210 H     2 rAPO    0.1444 ****
 32 H19     6.103129    9.436174   15.290787 H     2 rAPO    0.1393 ****
 33 H18     6.020630   10.859548   13.355327 H     2 rAPO    0.1444 ****
 34 H16     5.967786   13.282829   12.577531 H     2 rAPO    0.0684 ****
 35 H17     5.067197   14.526304   13.560518 H     2 rAPO    0.0684 ****
 36 H14     2.958924   13.301017   13.099046 H     2 rAPO    0.0719 ****
 37 H15     3.871596   12.096453   12.129470 H     2 rAPO    0.0719 ****
 38 H12     2.195210   14.540242    9.188828 H     2 rAPO    0.0729 ****
 39 H13     1.359750   13.960091   10.668625 H     2 rAPO    0.0729 ****
 40 H10     2.410612   11.711996   10.367755 H     2 rAPO    0.0789 ****
 41 H11     3.255232   12.302700    8.904958 H     2 rAPO    0.0789 ****
 42 H9      0.188508   12.140803    9.268667 H     2 rAPO    0.0859 ****
 43 C8      1.226387   10.630901    8.210182 C     2 rAPO    0.6377 ****
 44 O9      2.215760    9.968223    8.541383 O     2 rAPO   -0.6106 ****
 45 N25     0.258533   10.070776    7.490170 N     2 rAPO   -0.5575 ****
 46 H22    -0.542608   10.600822    7.238630 H     2 rAPO    0.3443 ****
 47 C26     0.352768    8.683778    7.110910 C     2 rAPO    0.0852 ****
 48 H23    -0.001085    8.548941    6.078143 H     2 rAPO    0.0739 ****
 49 H24     1.385768    8.327148    7.217347 H     2 rAPO    0.0739 ****
 50 C27    -0.567078    7.877882    8.053435 C     2 rAPO    0.1127 ****
 51 H25    -0.234336    8.023677    9.090656 H     2 rAPO    0.0583 ****
 52 H26    -1.599973    8.237976    7.947316 H     2 rAPO    0.0583 ****
 53 O28    -0.515457    6.481552    7.735491 O     2 rAPO   -0.4388 ****
 54 C29    -1.349791    5.780130    8.612472 C     2 rAPO    0.6357 ****
 55 O31    -1.987109    6.388143    9.480984 O     2 rAPO   -0.5417 ****
 56 C30    -1.468878    4.287120    8.513769 C     2 rAPO   -0.1291 ****
 57 H27    -1.735076    4.016029    7.482532 H     2 rAPO    0.0834 ****
 58 H28    -0.484366    3.841852    8.714450 H     2 rAPO    0.0834 ****
 59 C32    -2.511938    3.761968    9.516147 C     2 rAPO   -0.0782 ****
 60 H29    -2.209702    4.033656   10.536169 H     2 rAPO    0.0624 ****
 61 H30    -3.491489    4.207353    9.292736 H     2 rAPO    0.0624 ****
 62 C33    -2.606606    2.233117    9.402365 C     2 rAPO   -0.1560 ****
 63 H31    -2.893021    1.931371    8.385155 H     2 rAPO    0.0754 ****
 64 H32    -1.633966    1.762276    9.607984 H     2 rAPO    0.0754 ****
 65 C4     -3.647161    1.676090   10.366494 C     3 rPOP    0.6669 ****
 66 O6     -3.906129    0.470196   10.460959 O     3 rPOP   -0.6224 ****
 67 N5     -4.274846    2.590457   11.118522 N     3 rPOP   -0.5703 ****
 68 H8     -4.030330    3.547278   11.005642 H     3 rPOP    0.3224 ****
 69 C7     -5.302557    2.244986   12.088823 C     3 rPOP    0.0508 ****
 70 C8     -4.669572    1.403142   13.232787 C     3 rPOP   -0.0862 ****
 71 C9     -5.731018    1.055952   14.300408 C     3 rPOP   -0.0143 ****
 72 S10    -4.957531    0.097972   15.618895 S     3 rPOP   -0.2974 ****
 73 C11    -6.207014   -0.300038   16.859219 C     3 rPOP   -0.0143 ****
 74 C26    -5.565657   -1.118227   17.988579 C     3 rPOP   -0.1171 ****
 75 C27    -6.583081   -1.454936   19.033799 C     3 rPOP    0.6319 ****
 76 O28    -7.715115   -0.960017   18.972774 O     3 rPOP   -0.5375 ****
 77 O29    -6.252326   -2.323723   20.068541 O     3 rPOP   -0.4387 ****
 78 C30    -7.376049   -2.492324   20.933413 C     3 rPOP    0.1260 ****
 79 H31    -7.111482   -3.179966   21.748860 H     3 rPOP    0.0518 ****
 80 H32    -8.219806   -2.908228   20.361312 H     3 rPOP    0.0518 ****
 81 H33    -7.664019   -1.518575   21.353754 H     3 rPOP    0.0518 ****
 82 H29    -5.121293   -2.049449   17.610204 H     3 rPOP    0.0940 ****
 83 H30    -4.753289   -0.547054   18.461674 H     3 rPOP    0.0940 ****
 84 H14    -6.623354    0.630972   17.271386 H     3 rPOP    0.0784 ****
 85 H15    -7.012484   -0.886692   16.393327 H     3 rPOP    0.0784 ****
 86 H12    -6.146561    1.982825   14.717343 H     3 rPOP    0.0709 ****
 87 H13    -6.538445    0.461559   13.850342 H     3 rPOP    0.0709 ****
 88 H10    -4.246978    0.476874   12.821636 H     3 rPOP    0.0799 ****
 89 H11    -3.871011    1.990748   13.706941 H     3 rPOP    0.0799 ****
 90 H9     -5.718607    3.186947   12.469896 H     3 rPOP    0.0869 ****
 91 C12    -6.382563    1.465949   11.383319 C     3 rPOP    0.6389 ****
 92 O13    -6.369318    0.229021   11.385316 O     3 rPOP   -0.6144 ****
 93 N14    -7.347756    2.113795   10.747454 N     3 rPOP   -0.5593 ****
 94 H16    -7.359431    3.106701   10.740318 H     3 rPOP    0.3455 ****
 95 C15    -8.366613    1.379376   10.072150 C     3 rPOP    0.0852 ****
 96 H17    -7.898813    0.703226    9.341407 H     3 rPOP    0.0734 ****
 97 H18    -8.914562    0.769129   10.803690 H     3 rPOP    0.0734 ****
 98 C16    -9.323559    2.345930    9.367130 C     3 rPOP    0.1147 ****
 99 H19    -9.786491    3.009853   10.110569 H     3 rPOP    0.0579 ****
100 H20    -8.762945    2.946450    8.635634 H     3 rPOP    0.0579 ****
101 O17   -10.336962    1.599758    8.694396 O     3 rPOP   -0.4387 ****
102 C18   -11.208246    2.470371    8.052354 C     3 rPOP    0.6369 ****
103 O19   -11.033765    3.692089    8.120597 O     3 rPOP   -0.5415 ****
104 C20   -12.360444    1.925882    7.270692 C     3 rPOP   -0.1290 ****
105 H21   -12.188870    0.867515    7.029397 H     3 rPOP    0.0839 ****
106 H22   -13.272174    2.012198    7.880034 H     3 rPOP    0.0839 ****
107 C21   -12.569631    2.771756    6.011843 C     3 rPOP   -0.0782 ****
108 H23   -12.763788    3.814964    6.297885 H     3 rPOP    0.0629 ****
109 H24   -11.669345    2.725913    5.383205 H     3 rPOP    0.0629 ****
110 C22   -13.770406    2.224286    5.233744 C     3 rPOP   -0.1560 ****
111 H25   -13.599899    1.176638    4.948854 H     3 rPOP    0.0754 ****
112 H26   -14.683749    2.241616    5.846527 H     3 rPOP    0.0754 ****
113 C4    -14.010832    3.028440    3.961695 C     4 rOPO    0.6677 ****
114 O6    -14.923380    2.779639    3.166049 O     4 rOPO   -0.6236 ****
115 N5    -13.152159    4.044247    3.755461 N     4 rOPO   -0.5695 ****
116 H8    -12.433478    4.196538    4.423558 H     4 rOPO    0.3203 ****
117 C7    -13.219833    4.951573    2.600871 C     4 rOPO    0.0478 ****
118 C10   -14.628039    5.547102    2.340290 C     4 rOPO   -0.0972 ****
119 C11   -15.115304    6.329134    3.574226 C     4 rOPO   -0.0113 ****
120 S12   -16.766783    6.996882    3.247956 S     4 rOPO   -0.3064 ****
121 C13   -16.712910    8.157498    1.861396 C     4 rOPO   -0.0033 ****
122 C14   -18.130471    8.680846    1.591487 C     4 rOPO   -0.1174 ****
123 C15   -18.060389    9.646190    0.453403 C     4 rOPO    0.4096 ****
124 C16   -18.051183    9.155647   -0.923814 C     4 rOPO   -0.2427 ****
125 C17   -17.989097   10.027069   -1.922662 C     4 rOPO   -0.0898 ****
126 C19   -17.933265   11.447425   -1.616740 C     4 rOPO   -0.2487 ****
127 C21   -17.944425   11.843188   -0.344941 C     4 rOPO    0.4002 ****
128 N23   -18.009902   10.896215    0.693617 N     4 rOPO   -0.6664 ****
129 H21   -17.904066   12.876975   -0.114169 H     4 rOPO    0.0222 ****
130 H20   -17.883645   12.162330   -2.397796 H     4 rOPO    0.1444 ****
131 H19   -17.980659    9.693403   -2.929795 H     4 rOPO    0.1393 ****
132 H18   -18.092061    8.113936   -1.121017 H     4 rOPO    0.1444 ****
133 H16   -18.752445    7.815383    1.319231 H     4 rOPO    0.0684 ****
134 H17   -18.495711    9.183004    2.497048 H     4 rOPO    0.0684 ****
135 H14   -16.050980    8.998236    2.112015 H     4 rOPO    0.0719 ****
136 H15   -16.334310    7.647696    0.963195 H     4 rOPO    0.0719 ****
137 H12   -15.162453    5.648980    4.436182 H     4 rOPO    0.0729 ****
138 H13   -14.418557    7.150789    3.791544 H     4 rOPO    0.0729 ****
139 H10   -14.576130    6.222292    1.475983 H     4 rOPO    0.0789 ****
140 H11   -15.334759    4.736581    2.123465 H     4 rOPO    0.0789 ****
141 H9    -12.493593    5.749149    2.805940 H     4 rOPO    0.0859 ****
142 C8    -12.774652    4.230459    1.359574 C     4 rOPO    0.6377 ****
143 O9    -13.515885    4.205154    0.370823 O     4 rOPO   -0.6106 ****
144 N25   -11.574517    3.659504    1.308726 N     4 rOPO   -0.5575 ****
145 H22   -10.974638    3.694762    2.099265 H     4 rOPO    0.3443 ****
146 C26   -11.128261    3.026527    0.093540 C     4 rOPO    0.0852 ****
147 H23   -10.594357    2.093507    0.326819 H     4 rOPO    0.0739 ****
148 H24   -11.979933    2.830991   -0.571309 H     4 rOPO    0.0739 ****
149 C27   -10.145731    3.992532   -0.603171 C     4 rOPO    0.1127 ****
150 H25   -10.664512    4.936554   -0.821092 H     4 rOPO    0.0583 ****
151 H26    -9.295392    4.188970    0.064764 H     4 rOPO    0.0583 ****
152 O28    -9.666276    3.426227   -1.829103 O     4 rOPO   -0.4388 ****
153 C29    -8.788621    4.328863   -2.439161 C     4 rOPO    0.6357 ****
154 O31    -8.540576    5.413487   -1.898575 O     4 rOPO   -0.5417 ****
155 C30    -8.151791    3.993747   -3.756410 C     4 rOPO   -0.1291 ****
156 H27    -7.652703    3.017959   -3.675478 H     4 rOPO    0.0834 ****
157 H28    -8.942762    3.883528   -4.511405 H     4 rOPO    0.0834 ****
158 C32    -7.160461    5.095224   -4.171782 C     4 rOPO   -0.0782 ****
159 H29    -7.691415    6.052233   -4.260249 H     4 rOPO    0.0624 ****
160 H30    -6.370610    5.182579   -3.412634 H     4 rOPO    0.0624 ****
161 C33    -6.531655    4.733727   -5.525746 C     4 rOPO   -0.1560 ****
162 H31    -6.005506    3.770447   -5.470435 H     4 rOPO    0.0754 ****
163 H32    -7.303632    4.626337   -6.301966 H     4 rOPO    0.0754 ****
164 C4     -5.525814    5.792303   -5.961955 C     5 rPOO    0.6669 ****
165 O6     -4.887550    5.725215   -7.019446 O     5 rPOO   -0.6224 ****
166 N5     -5.373565    6.818113   -5.113347 N     5 rPOO   -0.5703 ****
167 H8     -5.910306    6.826205   -4.276759 H     5 rPOO    0.3224 ****
168 C7     -4.453017    7.917604   -5.359793 C     5 rPOO    0.0508 ****
169 C8     -4.928400    8.718975   -6.604720 C     5 rPOO   -0.0862 ****
170 C9     -3.991060    9.918968   -6.866322 C     5 rPOO   -0.0143 ****
171 S10    -4.583890   10.834866   -8.303019 S     5 rPOO   -0.2974 ****
172 C11    -3.481616   12.233625   -8.597109 C     5 rPOO   -0.0143 ****
173 C26    -3.970596   13.023359   -9.819175 C     5 rPOO   -0.1171 ****
174 C27    -3.074174   14.193828  -10.078868 C     5 rPOO    0.6319 ****
175 O28    -2.185103   14.480016   -9.267809 O     5 rPOO   -0.5375 ****
176 O29    -3.243345   14.954122  -11.231350 O     5 rPOO   -0.4387 ****
177 C30    -2.278066   16.006066  -11.260185 C     5 rPOO    0.1260 ****
178 H31    -2.413987   16.603812  -12.172340 H     5 rPOO    0.0518 ****
179 H32    -1.265203   15.574520  -11.251271 H     5 rPOO    0.0518 ****
180 H33    -2.409645   16.648128  -10.378003 H     5 rPOO    0.0518 ****
181 H29    -4.005005   12.393742  -10.719286 H     5 rPOO    0.0940 ****
182 H30    -4.992212   13.395027   -9.651358 H     5 rPOO    0.0940 ****
183 H14    -3.478333   12.889224   -7.713832 H     5 rPOO    0.0784 ****
184 H15    -2.462207   11.864520   -8.783029 H     5 rPOO    0.0784 ****
185 H12    -3.987837   10.578211   -5.988260 H     5 rPOO    0.0709 ****
186 H13    -2.969636    9.564072   -7.062645 H     5 rPOO    0.0709 ****
187 H10    -4.939259    8.063785   -7.485749 H     5 rPOO    0.0799 ****
188 H11    -5.943010    9.097723   -6.417861 H     5 rPOO    0.0799 ****
189 H9     -4.448942    8.545328   -4.458932 H     5 rPOO    0.0869 ****
190 C12    -3.076239    7.346669   -5.582422 C     5 rPOO    0.6389 ****
191 O13    -2.665308    7.123941   -6.727715 O     5 rPOO   -0.6144 ****
192 N14    -2.305192    7.072139   -4.540431 N     5 rPOO   -0.5593 ****
193 H16    -2.633232    7.245865   -3.619421 H     5 rPOO    0.3455 ****
194 C15    -1.005033    6.524290   -4.747610 C     5 rPOO    0.0852 ****
195 H17    -1.093970    5.597694   -5.333708 H     5 rPOO    0.0734 ****
196 H18    -0.401490    7.239260   -5.324112 H     5 rPOO    0.0734 ****
197 C16    -0.340051    6.238790   -3.397309 C     5 rPOO    0.1147 ****
198 H19    -0.253403    7.174251   -2.827040 H     5 rPOO    0.0579 ****
199 H20    -0.952007    5.519256   -2.833591 H     5 rPOO    0.0579 ****
200 O17     0.958681    5.690063   -3.617591 O     5 rPOO   -0.4387 ****
201 C18     1.567382    5.428305   -2.396819 C     5 rPOO    0.6369 ****
202 O19     0.976819    5.673120   -1.338993 O     5 rPOO   -0.5415 ****
203 C20     2.942540    4.842800   -2.362913 C     5 rPOO   -0.1290 ****
204 H21     3.183254    4.383325   -3.331800 H     5 rPOO    0.0839 ****
205 H22     3.663619    5.647829   -2.158042 H     5 rPOO    0.0839 ****
206 C21     3.041574    3.836337   -1.213484 C     5 rPOO   -0.0782 ****
207 H23     2.820055    4.341047   -0.262696 H     5 rPOO    0.0629 ****
208 H24     2.320229    3.022672   -1.372894 H     5 rPOO    0.0629 ****
209 C22     4.462219    3.264691   -1.168616 C     5 rPOO   -0.1560 ****
210 H25     4.706997    2.765637   -2.116682 H     5 rPOO    0.0754 ****
211 H26     5.207881    4.061019   -1.027725 H     5 rPOO    0.0754 ****
212 C4      4.606532    2.245177   -0.045078 C     6 rOOO    0.6669 ****
213 O6      5.661373    1.644601    0.193221 O     6 rOOO   -0.6224 ****
214 N5      3.499840    2.036537    0.681078 N     6 rOOO   -0.5703 ****
215 H8      2.677347    2.544672    0.450121 H     6 rOOO    0.3224 ****
216 C7      3.447514    1.094784    1.788954 C     6 rOOO    0.0508 ****
217 C8      4.380536    1.589143    2.930490 C     6 rOOO   -0.0862 ****
218 C9      4.313698    0.628351    4.138562 C     6 rOOO   -0.0143 ****
219 S10     5.391307    1.243286    5.448154 S     6 rOOO   -0.2974 ****
220 C11     5.303433    0.113322    6.852961 C     6 rOOO   -0.0143 ****
221 C26     6.217520    0.620825    7.976843 C     6 rOOO   -0.1171 ****
222 C27     6.155935   -0.298338    9.156825 C     6 rOOO    0.6319 ****
223 O28     5.332766   -1.221490    9.175561 O     6 rOOO   -0.5375 ****
224 O29     7.025067   -0.111853   10.226739 O     6 rOOO   -0.4387 ****
225 C30     6.780816   -1.104240   11.224082 C     6 rOOO    0.1260 ****
226 H31     7.469807   -0.954507   12.067096 H     6 rOOO    0.0518 ****
227 H32     6.940123   -2.104567   10.792612 H     6 rOOO    0.0518 ****
228 H33     5.743947   -1.019866   11.578463 H     6 rOOO    0.0518 ****
229 H29     7.261197    0.702540    7.642385 H     6 rOOO    0.0940 ****
230 H30     5.906813    1.625657    8.298980 H     6 rOOO    0.0940 ****
231 H14     4.266916    0.062550    7.217728 H     6 rOOO    0.0784 ****
232 H15     5.630577   -0.888773    6.538664 H     6 rOOO    0.0784 ****
233 H12     3.281082    0.577713    4.508352 H     6 rOOO    0.0709 ****
234 H13     4.646662   -0.375801    3.840881 H     6 rOOO    0.0709 ****
235 H10     5.414483    1.647399    2.565574 H     6 rOOO    0.0799 ****
236 H11     4.049841    2.586147    3.253640 H     6 rOOO    0.0799 ****
237 H9      2.402467    1.043401    2.121882 H     6 rOOO    0.0869 ****
238 C12     3.883538   -0.257564    1.286871 C     6 rOOO    0.6389 ****
239 O13     5.059032   -0.623807    1.406240 O     6 rOOO   -0.6144 ****
240 N14     3.000628   -1.055056    0.703690 N     6 rOOO   -0.5593 ****
241 H16     2.057018   -0.762803    0.602516 H     6 rOOO    0.3455 ****
242 C15     3.412030   -2.332008    0.220347 C     6 rOOO    0.0852 ****
243 H17     4.241376   -2.198103   -0.489761 H     6 rOOO    0.0734 ****
244 H18     3.775567   -2.935463    1.063842 H     6 rOOO    0.0734 ****
245 C16     2.233789   -3.033508   -0.462784 C     6 rOOO    0.1147 ****
246 H19     1.416846   -3.164843    0.260512 H     6 rOOO    0.0579 ****
247 H20     1.883464   -2.421096   -1.306718 H     6 rOOO    0.0579 ****
248 O17     2.657900   -4.308572   -0.943066 O     6 rOOO   -0.4387 ****
249 C18     1.594058   -4.950181   -1.564273 C     6 rOOO    0.6369 ****
250 O19     0.488366   -4.402167   -1.633711 O     6 rOOO   -0.5415 ****
251 C20     1.789417   -6.309059   -2.156145 C     6 rOOO   -0.1290 ****
252 H21     2.859550   -6.504603   -2.312282 H     6 rOOO    0.0839 ****
253 H22     1.385146   -7.058462   -1.459753 H     6 rOOO    0.0839 ****
254 C21     0.993026   -6.418591   -3.459113 C     6 rOOO   -0.0782 ****
255 H23    -0.072408   -6.242866   -3.254734 H     6 rOOO    0.0629 ****
256 H24     1.356434   -5.670199   -4.177198 H     6 rOOO    0.0629 ****
257 C22     1.175650   -7.823660   -4.041740 C     6 rOOO   -0.1560 ****
258 H25     2.237747   -8.022868   -4.241906 H     6 rOOO    0.0754 ****
259 H26     0.836008   -8.595251   -3.335135 H     6 rOOO    0.0754 ****
260 C4      0.409636   -7.977205   -5.350259 C     7 rOOO    0.6669 ****
261 O6      0.401512   -9.022463   -6.011727 O     7 rOOO   -0.6224 ****
262 N5     -0.266273   -6.890004   -5.746161 N     7 rOOO   -0.5703 ****
263 H8     -0.228594   -6.074577   -5.178980 H     7 rOOO    0.3224 ****
264 C7     -1.048138   -6.848714   -6.972541 C     7 rOOO    0.0508 ****
265 C8     -2.246459   -7.832523   -6.853484 C     7 rOOO   -0.0862 ****
266 C9     -3.118938   -7.779550   -8.127454 C     7 rOOO   -0.0143 ****
267 S10    -4.507486   -8.916732   -7.945339 S     7 rOOO   -0.2974 ****
268 C11    -5.518708   -8.844641   -9.438744 C     7 rOOO   -0.0143 ****
269 C26    -6.704809   -9.809307   -9.301600 C     7 rOOO   -0.1171 ****
270 C27    -7.562545   -9.761792  -10.527585 C     7 rOOO    0.6319 ****
271 O28    -7.340971   -8.914594  -11.401272 O     7 rOOO   -0.5375 ****
272 O29    -8.604209  -10.670904  -10.680333 O     7 rOOO   -0.4387 ****
273 C30    -9.273289  -10.432791  -11.919211 C     7 rOOO    0.1260 ****
274 H31   -10.094702  -11.153357  -12.036963 H     7 rOOO    0.0518 ****
275 H32    -8.559879  -10.550021  -12.749574 H     7 rOOO    0.0518 ****
276 H33    -9.677944   -9.411026  -11.926412 H     7 rOOO    0.0518 ****
277 H29    -6.367904  -10.843111   -9.141775 H     7 rOOO    0.0940 ****
278 H30    -7.321227   -9.537298   -8.432094 H     7 rOOO    0.0940 ****
279 H14    -5.893390   -7.819852   -9.578101 H     7 rOOO    0.0784 ****
280 H15    -4.909925   -9.133408  -10.308226 H     7 rOOO    0.0784 ****
281 H12    -3.498300   -6.758830   -8.268233 H     7 rOOO    0.0709 ****
282 H13    -2.525178   -8.074628   -9.003913 H     7 rOOO    0.0709 ****
283 H10    -1.873944   -8.854946   -6.706894 H     7 rOOO    0.0799 ****
284 H11    -2.862332   -7.540364   -5.991426 H     7 rOOO    0.0799 ****
285 H9     -1.392587   -5.814325   -7.102920 H     7 rOOO    0.0869 ****
286 C12    -0.152394   -7.230355   -8.122777 C     7 rOOO    0.6389 ****
287 O13    -0.111296   -8.398642   -8.527234 O     7 rOOO   -0.6144 ****
288 N14     0.604335   -6.306871   -8.697376 N     7 rOOO   -0.5593 ****
289 H16     0.576969   -5.368820   -8.372785 H     7 rOOO    0.3455 ****
290 C15     1.458960   -6.666613   -9.780741 C     7 rOOO    0.0852 ****
291 H17     2.130512   -7.475205   -9.456401 H     7 rOOO    0.0734 ****
292 H18     0.846300   -7.041304  -10.612640 H     7 rOOO    0.0734 ****
293 C16     2.270978   -5.447387  -10.229228 C     7 rOOO    0.1147 ****
294 H19     1.586574   -4.651697  -10.555219 H     7 rOOO    0.0579 ****
295 H20     2.881943   -5.086130   -9.388862 H     7 rOOO    0.0579 ****
296 O17     3.122632   -5.819981  -11.311904 O     7 rOOO   -0.4387 ****
297 C18     3.862436   -4.718760  -11.723394 C     7 rOOO    0.6369 ****
298 O19     3.722832   -3.626880  -11.161251 O     7 rOOO   -0.5415 ****
299 C20     4.836202   -4.856788  -12.849339 C     7 rOOO   -0.1290 ****
300 H21     5.085735   -5.915331  -13.007516 H     7 rOOO    0.0839 ****
301 H22     4.376338   -4.455466  -13.764471 H     7 rOOO    0.0839 ****
302 C21     6.080555   -4.014701  -12.555338 C     7 rOOO   -0.0782 ****
303 H23     5.791004   -2.961913  -12.430441 H     7 rOOO    0.0629 ****
304 H24     6.559794   -4.374446  -11.634082 H     7 rOOO    0.0629 ****
305 C22     7.058615   -4.139041  -13.727926 C     7 rOOO   -0.1560 ****
306 H25     7.350940   -5.187987  -13.876444 H     7 rOOO    0.0754 ****
307 H26     6.598130   -3.802017  -14.668335 H     7 rOOO    0.0754 ****
308 C4      8.322467   -3.325905  -13.474820 C     8 rOOT    0.6666 ****
309 O6      9.262007   -3.266957  -14.277291 O     8 rOOT   -0.6227 ****
310 N5      8.352621   -2.667374  -12.308189 N     8 rOOT   -0.5706 ****
311 H8      7.572083   -2.746377  -11.697817 H     8 rOOT    0.3222 ****
312 C7      9.479941   -1.846505  -11.893040 C     8 rOOT    0.0508 ****
313 C8      9.608642   -0.626179  -12.848167 C     8 rOOT   -0.0862 ****
314 C9     10.774323    0.286484  -12.406287 C     8 rOOT   -0.0143 ****
315 S10    10.880472    1.698982  -13.523425 S     8 rOOT   -0.2975 ****
316 C11    12.244450    2.757044  -12.996079 C     8 rOOT   -0.0143 ****
317 C26    12.350724    3.964033  -13.938475 C     8 rOOT   -0.1171 ****
318 C27    13.472797    4.860518  -13.516249 C     8 rOOT    0.6315 ****
319 O28    14.065759    4.644937  -12.452251 O     8 rOOT   -0.5378 ****
320 O29    13.845200    5.931335  -14.322194 O     8 rOOT   -0.4389 ****
321 C30    14.930889    6.634521  -13.717219 C     8 rOOT    0.1260 ****
322 H31    15.223059    7.478934  -14.357066 H     8 rOOT    0.0518 ****
323 H32    15.786702    5.952680  -13.595247 H     8 rOOT    0.0518 ****
324 H33    14.620121    7.010899  -12.732554 H     8 rOOT    0.0518 ****
325 H29    12.516634    3.650586  -14.978680 H     8 rOOT    0.0939 ****
326 H30    11.415755    4.543404  -13.925798 H     8 rOOT    0.0939 ****
327 H14    12.060150    3.107799  -11.969919 H     8 rOOT    0.0784 ****
328 H15    13.184035    2.185761  -13.024644 H     8 rOOT    0.0784 ****
329 H12    10.592395    0.642073  -11.383515 H     8 rOOT    0.0709 ****
330 H13    11.721831   -0.269384  -12.438568 H     8 rOOT    0.0709 ****
331 H10     9.785251   -0.975074  -13.874171 H     8 rOOT    0.0799 ****
332 H11     8.674859   -0.047658  -12.814050 H     8 rOOT    0.0799 ****
333 H9      9.285447   -1.526520  -10.860865 H     8 rOOT    0.0869 ****
334 C12    10.726421   -2.692567  -11.931964 C     8 rOOT    0.6385 ****
335 O13    11.458873   -2.687972  -12.928790 O     8 rOOT   -0.6147 ****
336 N14    11.032747   -3.454870  -10.892405 N     8 rOOT   -0.5596 ****
337 H16    10.445018   -3.464181  -10.092070 H     8 rOOT    0.3453 ****
338 C15    12.207284   -4.262683  -10.929521 C     8 rOOT    0.0852 ****
339 H17    12.163071   -4.922148  -11.808811 H     8 rOOT    0.0734 ****
340 H18    13.087510   -3.612551  -11.031168 H     8 rOOT    0.0734 ****
341 C16    12.308171   -5.092571   -9.645726 C     8 rOOT    0.1147 ****
342 H19    12.357253   -4.419856   -8.778058 H     8 rOOT    0.0578 ****
343 H20    11.423757   -5.740921   -9.559385 H     8 rOOT    0.0578 ****
344 O17    13.485724   -5.897084   -9.695271 O     8 rOOT   -0.4389 ****
345 C18    13.583221   -6.652810   -8.533939 C     8 rOOT    0.6365 ****
346 O19    12.718840   -6.562142   -7.655121 O     8 rOOT   -0.5418 ****
347 C20    14.737756   -7.584339   -8.348661 C     8 rOOT   -0.1291 ****
348 H21    15.211051   -7.799215   -9.316970 H     8 rOOT    0.0839 ****
349 H22    15.474592   -7.105458   -7.687038 H     8 rOOT    0.0839 ****
350 C21    14.258385   -8.860518   -7.651859 C     8 rOOT   -0.0782 ****
351 H23    13.816958   -8.604393   -6.678543 H     8 rOOT    0.0628 ****
352 H24    13.504209   -9.360105   -8.275905 H     8 rOOT    0.0628 ****
353 C3     15.417445   -9.843510   -7.415747 C     9 rOTX   -0.1435 ****
354 H11    16.183069   -9.371615   -6.782395 H     9 rOTX    0.0625 ****
355 H12    15.869148  -10.125116   -8.378381 H     9 rOTX    0.0625 ****
356 C4     14.931500  -11.101853   -6.726070 C     9 rOTX    0.6707 ****
357 N5     14.388064  -11.106636   -5.493567 N     9 rOTX   -0.5586 ****
358 C7     14.203836   -9.907100   -4.687327 C     9 rOTX    0.0027 ****
359 C8     15.426406   -9.589954   -3.739707 C     9 rOTX   -0.1031 ****
360 C9     14.962913   -8.378338   -2.867853 C     9 rOTX   -0.0269 ****
361 S10    13.460434   -9.048175   -2.352051 S     9 rOTX   -0.2001 ****
362 C11    13.103131  -10.032434   -3.664534 C     9 rOTX    0.5568 ****
363 O12    12.167738  -10.838495   -3.719316 O     9 rOTX   -0.4729 ****
364 H16    14.782460   -7.500274   -3.503653 H     9 rOTX    0.0853 ****
365 H17    15.659725   -8.140614   -2.050576 H     9 rOTX    0.0853 ****
366 H14    16.351889   -9.383989   -4.295459 H     9 rOTX    0.0731 ****
367 H15    15.574188  -10.455508   -3.078815 H     9 rOTX    0.0731 ****
368 H13    14.038110   -9.018317   -5.308623 H     9 rOTX    0.0828 ****
369 H2     14.098776  -11.976359   -5.111543 H     9 rOTX    0.3358 ****
370 O6     15.042777  -12.177756   -7.322120 O     9 rOTX   -0.5854 ****
371 NI     -1.894894  -13.793270   13.684289 N    10 DNI    -1.0000 ****
372 DM1    -2.553672  -14.418696   13.264127 D    10 DNI     0.5000 ****
373 DM2    -1.896352  -14.350750   14.514689 D    10 DNI     0.5000 ****
374 DM3    -2.648692  -13.245928   14.049691 D    10 DNI     0.5000 ****
375 DM4    -1.893698  -13.236596   12.853358 D    10 DNI     0.5000 ****
376 DM5    -1.142459  -14.340337   13.319145 D    10 DNI     0.5000 ****
377 DM6    -1.237741  -13.168375   14.104179 D    10 DNI     0.5000 ****
378 Cl-    -1.896872  -13.341440   16.827482 C    11 Cl-    -1.0000 ****
379 Cl-    -2.483111  -13.933550   10.478803 C    12 Cl-    -1.0000 ****
380 HC1    -1.866227   -2.029933   31.757509 H    13 MOH     0.0372 ****
381 C1     -1.328714   -1.687412   30.872918 C    13 MOH     0.1166 ****
382 HC2    -1.656649   -2.261410   30.006006 H    13 MOH     0.0372 ****
383 HC3    -0.269276   -1.871941   31.051109 H    13 MOH     0.0372 ****
384 O1     -1.589099   -0.306717   30.604218 O    13 MOH    -0.6497 ****
385 HO1    -1.329869   -0.101776   29.703364 H    13 MOH     0.4215 ****
386 HC1    -3.428653    0.671691   32.989289 H    14 MOH     0.0372 ****
387 C1     -3.015847    1.679248   32.952519 C    14 MOH     0.1166 ****
388 HC2    -3.101295    2.149958   33.931862 H    14 MOH     0.0372 ****
389 HC3    -3.592620    2.267125   32.238342 H    14 MOH     0.0372 ****
390 O1     -1.676395    1.623726   32.521184 O    14 MOH    -0.6497 ****
391 HO1    -1.642908    0.963180   31.825391 H    14 MOH     0.4215 ****
392 HC1    -1.866227  -26.633588   17.552583 H    15 MOH     0.0372 ****
393 C1     -1.328714  -26.291067   16.667992 C    15 MOH     0.1166 ****
394 HC2    -1.656649  -26.865064   15.801079 H    15 MOH     0.0372 ****
395 HC3    -0.269276  -26.475596   16.846183 H    15 MOH     0.0372 ****
396 O1     -1.589099  -24.910372   16.399291 O    15 MOH    -0.6497 ****
397 HO1    -1.329869  -24.705431   15.498437 H    15 MOH     0.4215 ****
398 HC1     1.281948  -10.263403   26.464249 H    16 MOH     0.0372 ****
399 C1      0.245605  -10.124598   26.771134 C    16 MOH     0.1166 ****
400 HC2    -0.317889   -9.760441   25.912706 H    16 MOH     0.0372 ****
401 HC3     0.175745   -9.374646   27.559558 H    16 MOH     0.0372 ****
402 O1     -0.279784  -11.367306   27.188327 O    16 MOH    -0.6497 ****
403 HO1    -1.042464  -11.215029   27.750476 H    16 MOH     0.4215 ****
404 HC1     7.510980  -25.669877   21.648852 H    17 MOH     0.0372 ****
405 C1      7.323919  -26.655796   22.073823 C    17 MOH     0.1166 ****
406 HC2     6.931898  -26.561083   23.086400 H    17 MOH     0.0372 ****
407 HC3     8.281166  -27.172230   22.142413 H    17 MOH     0.0372 ****
408 O1      6.482720  -27.459637   21.224588 O    17 MOH    -0.6497 ****
409 HO1     5.766805  -27.805832   21.761989 H    17 MOH     0.4215 ****
410 HC1     9.035762  -18.122182   18.671933 H    18 MOH     0.0372 ****
411 C1      8.243638  -18.654538   19.198020 C    18 MOH     0.1166 ****
412 HC2     8.270773  -18.396933   20.256559 H    18 MOH     0.0372 ****
413 HC3     8.409337  -19.722107   19.055892 H    18 MOH     0.0372 ****
414 O1      7.015037  -18.238941   18.642234 O    18 MOH    -0.6497 ****
415 HO1     6.320484  -18.597792   19.200141 H    18 MOH     0.4215 ****
416 HC1     9.732047  -10.231151   17.552583 H    19 MOH     0.0372 ****
417 C1     10.269560   -9.888631   16.667992 C    19 MOH     0.1166 ****
418 HC2     9.941625  -10.462628   15.801079 H    19 MOH     0.0372 ****
419 HC3    11.328998  -10.073159   16.846183 H    19 MOH     0.0372 ****
420 O1     10.009175   -8.507935   16.399291 O    19 MOH    -0.6497 ****
421 HO1    10.268405   -8.302994   15.498437 H    19 MOH     0.4215 ****
422 HC1    13.100886  -12.063369   26.194842 H    20 MOH     0.0372 ****
423 C1     13.149383  -13.150943   26.143930 C    20 MOH     0.1166 ****
424 HC2    12.771219  -13.505711   25.185800 H    20 MOH     0.0372 ****
425 HC3    12.542588  -13.597566   26.931647 H    20 MOH     0.0372 ****
426 O1     14.485949  -13.585319   26.217469 O    20 MOH    -0.6497 ****
427 HO1    14.453617  -14.544702   26.238682 H    20 MOH     0.4215 ****
428 HC1     4.190639  -13.088073   20.621426 H    21 MOH     0.0372 ****
429 C1      4.236250  -13.542861   19.631476 C    21 MOH     0.1166 ****
430 HC2     5.153659  -14.121757   19.522582 H    21 MOH     0.0372 ****
431 HC3     4.225857  -12.765148   18.868508 H    21 MOH     0.0372 ****
432 O1      3.132933  -14.379362   19.414395 O    21 MOH    -0.6497 ****
433 HO1     3.392164  -15.266894   19.671781 H    21 MOH     0.4215 ****
434 HC1    12.297791  -17.644940   19.116703 H    22 MOH     0.0372 ****
435 C1     12.496400  -16.684332   19.591171 C    22 MOH     0.1166 ****
436 HC2    13.561034  -16.467144   19.507733 H    22 MOH     0.0372 ****
437 HC3    12.267192  -16.719441   20.656074 H    22 MOH     0.0372 ****
438 O1     11.703121  -15.688614   18.939926 O    22 MOH    -0.6497 ****
439 HO1    11.750463  -14.912534   19.503490 H    22 MOH     0.4215 ****
440 HC1     5.804333   -9.773505   28.191004 H    23 MOH     0.0372 ****
441 C1      5.138648   -8.914550   28.275857 C    23 MOH     0.1166 ****
442 HC2     4.096531   -9.234617   28.268786 H    23 MOH     0.0372 ****
443 HC3     5.273748   -8.289930   27.393388 H    23 MOH     0.0372 ****
444 O1      5.364392   -8.117650   29.479353 O    23 MOH    -0.6497 ****
445 HO1     5.291646   -8.684707   30.249392 H    23 MOH     0.4215 ****
446 HC1    -1.872116  -17.159941   23.093471 H    24 MOH     0.0372 ****
447 C1     -2.412516  -16.290372   22.720119 C    24 MOH     0.1166 ****
448 HC2    -2.855921  -16.619829   21.780374 H    24 MOH     0.0372 ****
449 HC3    -1.689674  -15.487348   22.573748 H    24 MOH     0.0372 ****
450 O1     -3.403826  -15.951934   23.713604 O    24 MOH    -0.6497 ****
451 HO1    -4.039489  -16.665961   23.796335 H    24 MOH     0.4215 ****
452 HC1    -3.428652  -23.931964   18.784362 H    25 MOH     0.0372 ****
453 C1     -3.015847  -22.924407   18.747593 C    25 MOH     0.1166 ****
454 HC2    -3.101295  -22.453697   19.726936 H    25 MOH     0.0372 ****
455 HC3    -3.592620  -22.336529   18.033415 H    25 MOH     0.0372 ****
456 O1     -1.676394  -22.979929   18.316258 O    25 MOH    -0.6497 ****
457 HO1    -1.642908  -23.640474   17.620465 H    25 MOH     0.4215 ****
458 HC1     2.744954   -5.519558   30.924679 H    26 MOH     0.0372 ****
459 C1      2.290579   -5.221536   29.979984 C    26 MOH     0.1166 ****
460 HC2     1.209779   -5.356258   30.028067 H    26 MOH     0.0372 ****
461 HC3     2.713200   -5.846156   29.192267 H    26 MOH     0.0372 ****
462 O1      2.572326   -3.864111   29.720476 O    26 MOH    -0.6497 ****
463 HO1     2.302704   -3.669785   28.819622 H    26 MOH     0.4215 ****
464 HC1     3.785916   -2.605889   34.047969 H    27 MOH     0.0372 ****
465 C1      3.444125   -3.275417   33.258838 C    27 MOH     0.1166 ****
466 HC2     2.945872   -4.151517   33.674617 H    27 MOH     0.0372 ****
467 HC3     4.316501   -3.593442   32.688203 H    27 MOH     0.0372 ****
468 O1      2.662970   -2.545469   32.336771 O    27 MOH    -0.6497 ****
469 HO1     2.690106   -3.032509   31.510163 H    27 MOH     0.4215 ****
470 HC1     9.315777  -11.275450   31.007410 H    28 MOH     0.0372 ****
471 C1      9.798442  -12.241366   30.860332 C    28 MOH     0.1166 ****
472 HC2     9.025370  -12.995400   30.712547 H    28 MOH     0.0372 ****
473 HC3    10.363091  -12.483865   31.759772 H    28 MOH     0.0372 ****
474 O1     10.706614  -12.213605   29.737447 O    28 MOH    -0.6497 ****
475 HO1    11.417910  -11.609397   29.966549 H    28 MOH     0.4215 ****
476 HC1     4.008774  -19.517983   22.348181 H    29 MOH     0.0372 ****
477 C1      3.847693  -20.530847   22.716583 C    29 MOH     0.1166 ****
478 HC2     3.096560  -20.485940   23.504300 H    29 MOH     0.0372 ****
479 HC3     4.772608  -20.931339   23.131655 H    29 MOH     0.0372 ****
480 O1      3.396205  -21.377554   21.660166 O    29 MOH    -0.6497 ****
481 HO1     3.800928  -22.235692   21.810072 H    29 MOH     0.4215 ****
482 HC1     7.810048   -6.474042   22.135342 H    30 MOH     0.0372 ****
483 C1      7.229233   -6.092738   22.975384 C    30 MOH     0.1166 ****
484 HC2     7.526569   -5.085590   23.267419 H    30 MOH     0.0372 ****
485 HC3     7.437080   -6.747977   23.821791 H    30 MOH     0.0372 ****
486 O1      5.849944   -6.136421   22.690420 O    30 MOH    -0.6497 ****
487 HO1     5.444644   -6.811255   23.239842 H    30 MOH     0.4215 ****
488 HC1     6.742527  -15.471834   27.912404 H    31 MOH     0.0372 ****
489 C1      5.679048  -15.270976   27.780882 C    31 MOH     0.1166 ****
490 HC2     5.097079  -16.191984   27.807752 H    31 MOH     0.0372 ****
491 HC3     5.513926  -14.800266   26.811439 H    31 MOH     0.0372 ****
492 O1      5.228715  -14.380587   28.760225 O    31 MOH    -0.6497 ****
493 HO1     5.338989  -13.486115   28.430006 H    31 MOH     0.4215 ****
494 HC1    10.455467  -12.544286   25.115797 H    32 MOH     0.0372 ****
495 C1     10.051322  -12.198500   24.164738 C    32 MOH     0.1166 ****
496 HC2     9.118324  -12.721874   23.952606 H    32 MOH     0.0372 ****
497 HC3    10.772432  -12.343428   23.360758 H    32 MOH     0.0372 ****
498 O1      9.804793  -10.832501   24.318887 O    32 MOH    -0.6497 ****
499 HO1    10.629249  -10.376896   24.506978 H    32 MOH     0.4215 ****
500 HC1     5.653067  -11.872309   22.652237 H    33 MOH     0.0372 ****
501 C1      5.415776  -12.158900   23.677541 C    33 MOH     0.1166 ****
502 HC2     6.177879  -12.821486   24.086956 H    33 MOH     0.0372 ****
503 HC3     4.462571  -12.687581   23.658450 H    33 MOH     0.0372 ****
504 O1      5.314163  -11.032542   24.515463 O    33 MOH    -0.6497 ****
505 HO1     6.087812  -10.476100   24.395962 H    33 MOH     0.4215 ****
506 HC1    12.695008  -10.656954   23.449146 H    34 MOH     0.0372 ****
507 C1     13.115319   -9.773505   23.929979 C    34 MOH     0.1166 ****
508 HC2    13.368776   -9.031718   23.172667 H    34 MOH     0.0372 ****
509 HC3    14.002129  -10.056421   24.496371 H    34 MOH     0.0372 ****
510 O1     12.110153   -9.277075   24.753051 O    34 MOH    -0.6497 ****
511 HO1    12.466378   -9.080707   25.622085 H    34 MOH     0.4215 ****
512 HC1     1.359891  -12.618587   24.639207 H    35 MOH     0.0372 ****
513 C1      0.777344  -13.491422   24.934777 C    35 MOH     0.1166 ****
514 HC2     1.113362  -14.406306   24.447581 H    35 MOH     0.0372 ****
515 HC3    -0.242834  -13.311384   24.597487 H    35 MOH     0.0372 ****
516 O1      0.770416  -13.638391   26.337677 O    35 MOH    -0.6497 ****
517 HO1     0.583932  -12.776579   26.718808 H    35 MOH     0.4215 ****
518 HC1     6.023149  -16.360591   23.223579 H    36 MOH     0.0372 ****
519 C1      6.037582  -15.653097   22.394143 C    36 MOH     0.1166 ****
520 HC2     5.046849  -15.221986   22.252721 H    36 MOH     0.0372 ****
521 HC3     6.376487  -16.146261   21.483389 H    36 MOH     0.0372 ****
522 O1      6.914578  -14.601449   22.701027 O    36 MOH    -0.6497 ****
523 HO1     7.110877  -14.594509   23.640772 H    36 MOH     0.4215 ****
524 HC1    -2.773937  -19.816821   21.007506 H    37 MOH     0.0372 ****
525 C1     -1.985854  -19.782528   20.255145 C    37 MOH     0.1166 ****
526 HC2    -2.406165  -19.391018   19.328128 H    37 MOH     0.0372 ****
527 HC3    -1.588060  -20.780287   20.068468 H    37 MOH     0.0372 ****
528 O1     -0.979533  -18.882341   20.605162 O    37 MOH    -0.6497 ****
529 HO1    -0.152190  -19.347335   20.461620 H    37 MOH     0.4215 ****
530 HC1     0.429779  -20.437358   18.289388 H    38 MOH     0.0372 ****
531 C1      0.859905  -21.007273   19.113874 C    38 MOH     0.1166 ****
532 HC2     1.635287  -21.651081   18.698803 H    38 MOH     0.0372 ****
533 HC3     0.114546  -21.655980   19.574201 H    38 MOH     0.0372 ****
534 O1      1.429173  -20.112801   20.053619 O    38 MOH    -0.6497 ****
535 HO1     1.843710  -20.652097   20.730320 H    38 MOH     0.4215 ****
536 HC1    10.777051  -11.722074   20.574757 H    39 MOH     0.0372 ****
537 C1     11.520678  -12.242999   19.972302 C    39 MOH     0.1166 ****
538 HC2    12.436356  -11.653488   19.924219 H    39 MOH     0.0372 ****
539 HC3    11.184660  -12.364248   18.942047 H    39 MOH     0.0372 ****
540 O1     11.859005  -13.471826   20.556372 O    39 MOH    -0.6497 ****
541 HO1    11.155215  -13.743311   21.149635 H    39 MOH     0.4215 ****
542 HC1    11.492965  -17.399175   25.234591 H    40 MOH     0.0372 ****
543 C1     11.453705  -18.468785   25.029530 C    40 MOH     0.1166 ****
544 HC2    10.675437  -18.897038   25.660976 H    40 MOH     0.0372 ****
545 HC3    12.422499  -18.905202   25.273482 H    40 MOH     0.0372 ****
546 O1     11.165030  -18.760683   23.661278 O    40 MOH    -0.6497 ****
547 HO1    11.594579  -19.575138   23.389042 H    40 MOH     0.4215 ****
548 HC1    15.654506  -18.719041   22.988112 H    41 MOH     0.0372 ****
549 C1     15.132004  -17.789868   23.215801 C    41 MOH     0.1166 ****
550 HC2    14.099702  -18.002974   23.494401 H    41 MOH     0.0372 ****
551 HC3    15.172418  -17.143611   22.339696 H    41 MOH     0.0372 ****
552 O1     15.819628  -17.226486   24.282118 O    41 MOH    -0.6497 ****
553 HO1    16.282086  -17.941737   24.724767 H    41 MOH     0.4215 ****
554 HC1    10.527636  -16.574513   22.606982 H    42 MOH     0.0372 ****
555 C1      9.590596  -16.318541   22.114128 C    42 MOH     0.1166 ****
556 HC2     8.752283  -16.650447   22.727190 H    42 MOH     0.0372 ****
557 HC3     9.572121  -16.817421   21.145392 H    42 MOH     0.0372 ****
558 O1      9.559996  -14.934988   21.897047 O    42 MOH    -0.6497 ****
559 HO1     8.643742  -14.693713   21.745019 H    42 MOH     0.4215 ****
560 HC1     7.198057  -21.284474   20.899319 H    43 MOH     0.0372 ****
561 C1      7.503475  -22.264678   20.532331 C    43 MOH     0.1166 ****
562 HC2     8.452639  -22.185069   20.002708 H    43 MOH     0.0372 ****
563 HC3     6.736754  -22.657004   19.865529 H    43 MOH     0.0372 ****
564 O1      7.657050  -23.185278   21.606426 O    43 MOH    -0.6497 ****
565 HO1     8.506332  -23.619246   21.498238 H    43 MOH     0.4215 ****
566 HC1     4.483933  -17.609014   15.824414 H    44 MOH     0.0372 ****
567 C1      5.407693  -17.420812   15.276406 C    44 MOH     0.1166 ****
568 HC2     5.998323  -18.335696   15.313882 H    44 MOH     0.0372 ****
569 HC3     5.930195  -16.597375   15.763602 H    44 MOH     0.0372 ****
570 O1      5.134607  -17.068494   13.922296 O    44 MOH    -0.6497 ****
571 HO1     5.916339  -16.646365   13.558843 H    44 MOH     0.4215 ****
572 HC1     8.591780   -8.353209   25.845531 H    45 MOH     0.0372 ****
573 C1      7.576798   -8.736554   25.741586 C    45 MOH     0.1166 ****
574 HC2     6.855688   -7.919241   25.762799 H    45 MOH     0.0372 ****
575 HC3     7.341817   -9.431393   26.547688 H    45 MOH     0.0372 ****
576 O1      7.449204   -9.448539   24.559304 O    45 MOH    -0.6497 ****
577 HO1     8.169737  -10.081732   24.527484 H    45 MOH     0.4215 ****
578 HC1     7.449781  -10.988452   21.624810 H    46 MOH     0.0372 ****
579 C1      8.042720  -11.326890   20.775575 C    46 MOH     0.1166 ****
580 HC2     8.409915  -12.322607   21.023770 H    46 MOH     0.0372 ****
581 HC3     8.889693  -10.656954   20.623547 H    46 MOH     0.0372 ****
582 O1      7.238471  -11.377921   19.605313 O    46 MOH    -0.6497 ****
583 HO1     7.645503  -12.028260   19.027607 H    46 MOH     0.4215 ****
584 HC1     3.206257  -10.667568   27.287321 H    47 MOH     0.0372 ****
585 C1      3.387545  -11.705744   27.566629 C    47 MOH     0.1166 ****
586 HC2     2.728211  -12.343019   26.977609 H    47 MOH     0.0372 ****
587 HC3     3.162955  -11.860470   28.622339 H    47 MOH     0.0372 ****
588 O1      4.717760  -12.101336   27.325505 O    47 MOH    -0.6497 ****
589 HO1     4.897316  -11.993151   26.388589 H    47 MOH     0.4215 ****
590 HC1    -1.072486   -4.983119   28.616682 H    48 MOH     0.0372 ****
591 C1     -1.980081   -5.046806   29.216309 C    48 MOH     0.1166 ****
592 HC2    -2.590917   -5.893513   28.903768 H    48 MOH     0.0372 ****
593 HC3    -2.529141   -4.114775   29.084080 H    48 MOH     0.0372 ****
594 O1     -1.608267   -5.230109   30.540720 O    48 MOH    -0.6497 ****
595 HO1    -1.081146   -6.032726   30.539306 H    48 MOH     0.4215 ****
596 HC1     6.464244  -19.054621   23.593396 H    49 MOH     0.0372 ****
597 C1      7.391469  -19.231393   24.137161 C    49 MOH     0.1166 ****
598 HC2     7.325651  -20.156075   24.710624 H    49 MOH     0.0372 ****
599 HC3     7.614903  -18.394892   24.799720 H    49 MOH     0.0372 ****
600 O1      8.394904  -19.333455   23.206608 O    49 MOH    -0.6497 ****
601 HO1     9.204926  -18.992568   23.593396 H    49 MOH     0.4215 ****
602 HC1     4.367308  -18.910510   18.320500 H    50 MOH     0.0372 ****
603 C1      4.647323  -19.818862   18.854366 C    50 MOH     0.1166 ****
604 HC2     5.455613  -20.314476   18.316965 H    50 MOH     0.0372 ****
605 HC3     3.816516  -20.524724   18.877701 H    50 MOH     0.0372 ****
606 O1      5.084955  -19.557583   20.173827 O    50 MOH    -0.6497 ****
607 HO1     4.737390  -20.262220   20.725371 H    50 MOH     0.4215 ****
608 HC1    11.114223   -9.503653   29.020440 H    51 MOH     0.0372 ****
609 C1     10.621744   -9.067235   28.151406 C    51 MOH     0.1166 ****
610 HC2     9.679508   -8.579787   28.401722 H    51 MOH     0.0372 ****
611 HC3    10.369442   -9.901695   27.496625 H    51 MOH     0.0372 ****
612 O1     11.459479   -8.142145   27.451370 O    51 MOH    -0.6497 ****
613 HO1    10.918502   -7.442407   27.079432 H    51 MOH     0.4215 ****
614 HC1     4.475850  -17.376721   23.788557 H    52 MOH     0.0372 ****
615 C1      3.845383  -17.690256   24.620115 C    52 MOH     0.1166 ****
616 HC2     2.869084  -18.002974   24.249591 H    52 MOH     0.0372 ****
617 HC3     3.675065  -16.863145   25.310251 H    52 MOH     0.0372 ****
618 O1      4.447560  -18.744353   25.315908 O    52 MOH    -0.6497 ****
619 HO1     3.796886  -19.098712   25.925434 H    52 MOH     0.4215 ****
620 HC1     7.138012  -12.644307   26.932354 H    53 MOH     0.0372 ****
621 C1      7.794459  -12.368739   27.757548 C    53 MOH     0.1166 ****
622 HC2     7.247709  -12.404665   28.700828 H    53 MOH     0.0372 ****
623 HC3     8.140869  -11.346077   27.606934 H    53 MOH     0.0372 ****
624 O1      8.913364  -13.240757   27.822601 O    53 MOH    -0.6497 ****
625 HO1     9.518427  -12.914159   28.492939 H    53 MOH     0.4215 ****
626 HC1     3.594236   -2.535263   26.980437 H    54 MOH     0.0372 ****
627 C1      2.686641   -2.155592   26.510918 C    54 MOH     0.1166 ****
628 HC2     2.817123   -2.175596   25.428338 H    54 MOH     0.0372 ****
629 HC3     2.543459   -1.124765   26.832652 H    54 MOH     0.0372 ****
630 O1      1.546375   -2.948818   26.884978 O    54 MOH    -0.6497 ****
631 HO1     0.773303   -2.443815   26.622641 H    54 MOH     0.4215 ****
632 HC1     2.968388  -15.676367   21.827750 H    55 MOH     0.0372 ****
633 C1      2.835021  -16.699029   21.474904 C    55 MOH     0.1166 ****
634 HC2     1.836205  -16.776596   21.046397 H    55 MOH     0.0372 ****
635 HC3     2.908344  -17.415913   22.292319 H    55 MOH     0.0372 ****
636 O1      3.755317  -16.976229   20.463034 O    55 MOH    -0.6497 ****
637 HO1     3.871364  -17.924182   20.371110 H    55 MOH     0.4215 ****
638 HC1     5.155391  -24.950951   20.785475 H    56 MOH     0.0372 ****
639 C1      4.418692  -24.605165   21.510259 C    56 MOH     0.1166 ****
640 HC2     4.147915  -25.413089   22.191203 H    56 MOH     0.0372 ****
641 HC3     3.509943  -24.305511   20.989829 H    56 MOH     0.0372 ****
642 O1      4.858633  -23.523715   22.304340 O    56 MOH    -0.6497 ****
643 HO1     5.806065  -23.592301   22.440105 H    56 MOH     0.4215 ****
644 HC1     6.103978   -8.395667   21.137614 H    57 MOH     0.0372 ****
645 C1      5.256428   -9.060295   21.307319 C    57 MOH     0.1166 ****
646 HC2     4.390980   -8.416487   21.463590 H    57 MOH     0.0372 ****
647 HC3     5.489100   -9.662053   22.185546 H    57 MOH     0.0372 ****
648 O1      5.123060   -9.762074   20.091803 O    57 MOH    -0.6497 ****
649 HO1     5.968878  -10.167873   19.886742 H    57 MOH     0.4215 ****
650 HC1     2.133540   -7.389743   24.387477 H    58 MOH     0.0372 ****
651 C1      3.004762   -8.044981   24.368385 C    58 MOH     0.1166 ****
652 HC2     3.004184   -8.616529   23.440661 H    58 MOH     0.0372 ****
653 HC3     2.977049   -8.754109   25.196407 H    58 MOH     0.0372 ****
654 O1      4.183133   -7.260328   24.441924 O    58 MOH    -0.6497 ****
655 HO1     4.153689   -6.749610   25.254389 H    58 MOH     0.4215 ****
656 HC1    15.881982  -13.018262   24.342929 H    59 MOH     0.0372 ****
657 C1     15.435113  -12.604298   23.439247 C    59 MOH     0.1166 ****
658 HC2    14.407429  -12.285456   23.611073 H    59 MOH     0.0372 ****
659 HC3    15.465712  -13.376704   22.669914 H    59 MOH     0.0372 ****
660 O1     16.245713  -11.539995   23.051045 O    59 MOH    -0.6497 ****
661 HO1    16.427578  -10.993759   23.818963 H    59 MOH     0.4215 ****
662 HC1     9.107931  -15.270568   18.937098 H    60 MOH     0.0372 ****
663 C1      8.183593  -14.755359   18.675468 C    60 MOH     0.1166 ****
664 HC2     7.470566  -14.802307   19.499247 H    60 MOH     0.0372 ****
665 HC3     7.747694  -15.201574   17.782392 H    60 MOH     0.0372 ****
666 O1      8.421462  -13.406098   18.396161 O    60 MOH    -0.6497 ****
667 HO1     8.926066  -13.375888   17.580160 H    60 MOH     0.4215 ****
668 HC1     0.829883   -8.077233   28.989327 H    61 MOH     0.0372 ****
669 C1      0.459224   -8.474050   29.934022 C    61 MOH     0.1166 ****
670 HC2     1.313703   -8.596933   30.599410 H    61 MOH     0.0372 ****
671 HC3    -0.012471   -9.449764   29.818057 H    61 MOH     0.0372 ****
672 O1     -0.395832   -7.538754   30.496172 O    61 MOH    -0.6497 ****
673 HO1    -0.211080   -7.537121   31.438038 H    61 MOH     0.4215 ****
674 HC1     0.827574   -6.663469   25.914120 H    62 MOH     0.0372 ****
675 C1      1.393954   -6.358508   26.794468 C    62 MOH     0.1166 ****
676 HC2     1.779624   -7.252163   27.285907 H    62 MOH     0.0372 ****
677 HC3     0.739816   -5.834725   27.490968 H    62 MOH     0.0372 ****
678 O1      2.488610   -5.544052   26.389296 O    62 MOH    -0.6497 ****
679 HO1     2.137581   -4.668768   26.212519 H    62 MOH     0.4215 ****
680 HC1     8.062350   -8.536104   31.121962 H    63 MOH     0.0372 ****
681 C1      9.008050   -8.193176   31.541983 C    63 MOH     0.1166 ****
682 HC2     8.894312   -7.218687   32.017866 H    63 MOH     0.0372 ****
683 HC3     9.737820   -8.079683   30.740124 H    63 MOH     0.0372 ****
684 O1      9.449722   -9.115408   32.514255 O    63 MOH    -0.6497 ****
685 HO1    10.281107   -9.503653   32.232119 H    63 MOH     0.4215 ****
686 HC1     7.980366  -16.601866   26.192720 H    64 MOH     0.0372 ****
687 C1      8.762098  -15.928664   25.841288 C    64 MOH     0.1166 ****
688 HC2     9.321551  -16.363449   25.013266 H    64 MOH     0.0372 ****
689 HC3     9.447413  -15.723724   26.662946 H    64 MOH     0.0372 ****
690 O1      8.188212  -14.729231   25.395811 O    64 MOH    -0.6497 ****
691 HO1     8.383357  -14.085831   26.081705 H    64 MOH     0.4215 ****
692 HC1     7.378652   -4.401937   30.555569 H    65 MOH     0.0372 ****
693 C1      6.577867   -4.795897   31.181359 C    65 MOH     0.1166 ****
694 HC2     6.012064   -5.526253   30.602238 H    65 MOH     0.0372 ****
695 HC3     5.905254   -4.019000   31.542690 H    65 MOH     0.0372 ****
696 O1      7.074965   -5.536867   32.225755 O    65 MOH    -0.6497 ****
697 HO1     7.619407   -4.940825   32.744772 H    65 MOH     0.4215 ****
698 HC1    19.109254   -9.267440   21.648852 H    66 MOH     0.0372 ****
699 C1     18.922193  -10.253360   22.073823 C    66 MOH     0.1166 ****
700 HC2    18.530172  -10.158646   23.086400 H    66 MOH     0.0372 ****
701 HC3    19.879440  -10.769794   22.142413 H    66 MOH     0.0372 ****
702 O1     18.080994  -11.057201   21.224588 O    66 MOH    -0.6497 ****
703 HO1    17.365079  -11.403395   21.761989 H    66 MOH     0.4215 ****
704 HC1    20.634037   -1.719746   18.671933 H    67 MOH     0.0372 ****
705 C1     19.841912   -2.252102   19.198020 C    67 MOH     0.1166 ****
706 HC2    19.869047   -1.994497   20.256559 H    67 MOH     0.0372 ****
707 HC3    20.007612   -3.319671   19.055892 H    67 MOH     0.0372 ****
708 O1     18.613311   -1.836505   18.642234 O    67 MOH    -0.6497 ****
709 HO1    17.918758   -2.195355   19.200141 H    67 MOH     0.4215 ****
710 HC1    21.330321    6.171285   17.552583 H    68 MOH     0.0372 ****
711 C1     21.867834    6.513806   16.667992 C    68 MOH     0.1166 ****
712 HC2    21.539899    5.939809   15.801079 H    68 MOH     0.0372 ****
713 HC3    22.927272    6.329277   16.846183 H    68 MOH     0.0372 ****
714 O1     21.607449    7.894501   16.399291 O    68 MOH    -0.6497 ****
715 HO1    21.866679    8.099442   15.498437 H    68 MOH     0.4215 ****
716 HC1    15.788913    3.314364   20.621426 H    69 MOH     0.0372 ****
717 C1     15.834524    2.859575   19.631476 C    69 MOH     0.1166 ****
718 HC2    16.751933    2.280679   19.522582 H    69 MOH     0.0372 ****
719 HC3    15.824131    3.637288   18.868508 H    69 MOH     0.0372 ****
720 O1     14.731207    2.023075   19.414395 O    69 MOH    -0.6497 ****
721 HO1    14.990438    1.135543   19.671781 H    69 MOH     0.4215 ****
722 HC1    23.896066   -1.242504   19.116703 H    70 MOH     0.0372 ****
723 C1     24.094674   -0.281895   19.591171 C    70 MOH     0.1166 ****
724 HC2    25.159308   -0.064707   19.507733 H    70 MOH     0.0372 ****
725 HC3    23.865466   -0.317005   20.656074 H    70 MOH     0.0372 ****
726 O1     23.301395    0.713822   18.939926 O    70 MOH    -0.6497 ****
727 HO1    23.348738    1.489902   19.503490 H    70 MOH     0.4215 ****
728 HC1     9.470969   -2.529302   27.562386 H    71 MOH     0.0372 ****
729 C1     10.385492   -2.223116   27.054683 C    71 MOH     0.1166 ****
730 HC2    10.980740   -1.568694   27.691787 H    71 MOH     0.0372 ****
731 HC3    10.110096   -1.676880   26.152415 H    71 MOH     0.0372 ****
732 O1     11.087550   -3.362537   26.656582 O    71 MOH    -0.6497 ****
733 HO1    12.022280   -3.163720   26.746385 H    71 MOH     0.4215 ****
734 HC1     6.416786   -2.866923   22.706684 H    72 MOH     0.0372 ****
735 C1      6.459510   -2.625240   23.768758 C    72 MOH     0.1166 ****
736 HC2     7.496431   -2.687294   24.099684 H    72 MOH     0.0372 ****
737 HC3     5.861953   -3.327019   24.350707 H    72 MOH     0.0372 ****
738 O1      6.025920   -1.331502   24.038166 O    72 MOH    -0.6497 ****
739 HO1     5.256312   -1.140033   23.497229 H    72 MOH     0.4215 ****
740 HC1     3.813514    1.070631   30.421926 H    73 MOH     0.0372 ****
741 C1      3.378769    0.185141   30.885081 C    73 MOH     0.1166 ****
742 HC2     2.966541   -0.489694   30.134840 H    73 MOH     0.0372 ****
743 HC3     2.556622    0.471323   31.541983 H    73 MOH     0.0372 ****
744 O1      4.284054   -0.517454   31.680576 O    73 MOH    -0.6497 ****
745 HO1     3.757511   -1.235155   32.041200 H    73 MOH     0.4215 ****
746 HC1     9.726158   -0.757505   23.093471 H    74 MOH     0.0372 ****
747 C1      9.185758    0.112064   22.720119 C    74 MOH     0.1166 ****
748 HC2     8.742353   -0.217392   21.780374 H    74 MOH     0.0372 ****
749 HC3     9.908601    0.915089   22.573748 H    74 MOH     0.0372 ****
750 O1      8.194448    0.450502   23.713604 O    74 MOH    -0.6497 ****
751 HO1     7.558785   -0.263524   23.796335 H    74 MOH     0.4215 ****
752 HC1     8.169622   -7.529527   18.784362 H    75 MOH     0.0372 ****
753 C1      8.582427   -6.521970   18.747593 C    75 MOH     0.1166 ****
754 HC2     8.496979   -6.051260   19.726936 H    75 MOH     0.0372 ****
755 HC3     8.005654   -5.934093   18.033415 H    75 MOH     0.0372 ****
756 O1      9.921880   -6.577492   18.316258 O    75 MOH    -0.6497 ****
757 HO1     9.955366   -7.238038   17.620465 H    75 MOH     0.4215 ****
758 HC1    18.150853   -2.909381   29.716940 H    76 MOH     0.0372 ****
759 C1     18.010557   -3.063699   28.647795 C    76 MOH     0.1166 ****
760 HC2    17.814258   -2.109215   28.158477 H    76 MOH     0.0372 ****
761 HC3    17.176286   -3.742616   28.471725 H    76 MOH     0.0372 ****
762 O1     19.186042   -3.618100   28.096252 O    76 MOH    -0.6497 ****
763 HO1    19.832674   -3.718938   28.798409 H    76 MOH     0.4215 ****
764 HC1    15.607048   -3.115547   22.348181 H    77 MOH     0.0372 ****
765 C1     15.445967   -4.128411   22.716583 C    77 MOH     0.1166 ****
766 HC2    14.694834   -4.083503   23.504300 H    77 MOH     0.0372 ****
767 HC3    16.370882   -4.528902   23.131655 H    77 MOH     0.0372 ****
768 O1     14.994479   -4.975118   21.660166 O    77 MOH    -0.6497 ****
769 HO1    15.399202   -5.833256   21.810072 H    77 MOH     0.4215 ****
770 HC1    17.251341    4.530127   22.652237 H    78 MOH     0.0372 ****
771 C1     17.014050    4.243537   23.677541 C    78 MOH     0.1166 ****
772 HC2    17.776153    3.580950   24.086956 H    78 MOH     0.0372 ****
773 HC3    16.060845    3.714855   23.658450 H    78 MOH     0.0372 ****
774 O1     16.912437    5.369894   24.515463 O    78 MOH    -0.6497 ****
775 HO1    17.686086    5.926336   24.395962 H    78 MOH     0.4215 ****
776 HC1    14.942518  -10.452177   29.004177 H    79 MOH     0.0372 ****
777 C1     14.535486   -9.451560   28.859220 C    79 MOH     0.1166 ****
778 HC2    13.489904   -9.497284   28.553750 H    79 MOH     0.0372 ****
779 HC3    15.092051   -8.993914   28.042512 H    79 MOH     0.0372 ****
780 O1     14.690215   -8.627715   30.016047 O    79 MOH    -0.6497 ****
781 HO1    14.973117   -7.747532   29.755831 H    79 MOH     0.4215 ****
782 HC1    14.348424   -6.046769   31.226613 H    80 MOH     0.0372 ****
783 C1     14.436759   -5.060850   31.682697 C    80 MOH     0.1166 ****
784 HC2    13.835737   -5.029006   32.590622 H    80 MOH     0.0372 ****
785 HC3    14.084575   -4.325595   30.959327 H    80 MOH     0.0372 ****
786 O1     15.776789   -4.857134   31.990289 O    80 MOH    -0.6497 ****
787 HO1    16.261763   -5.323762   31.306517 H    80 MOH     0.4215 ****
788 HC1    12.958165    3.783849   24.639207 H    81 MOH     0.0372 ****
789 C1     12.375618    2.911015   24.934777 C    81 MOH     0.1166 ****
790 HC2    12.711636    1.996130   24.447581 H    81 MOH     0.0372 ****
791 HC3    11.355440    3.091052   24.597487 H    81 MOH     0.0372 ****
792 O1     12.368690    2.764045   26.337677 O    81 MOH    -0.6497 ****
793 HO1    12.182206    3.625857   26.718808 H    81 MOH     0.4215 ****
794 HC1    12.127358    0.769344   28.910132 H    82 MOH     0.0372 ****
795 C1     13.159083    0.485612   28.704364 C    82 MOH     0.1166 ****
796 HC2    13.429860   -0.340275   29.361266 H    82 MOH     0.0372 ****
797 HC3    13.807447    1.336401   28.915081 H    82 MOH     0.0372 ****
798 O1     13.297069    0.166361   27.342476 O    82 MOH    -0.6497 ****
799 HO1    13.000311    0.959180   26.889928 H    82 MOH     0.4215 ****
800 HC1    17.621423    0.041846   23.223579 H    83 MOH     0.0372 ****
801 C1     17.635857    0.749340   22.394143 C    83 MOH     0.1166 ****
802 HC2    16.645124    1.180450   22.252721 H    83 MOH     0.0372 ****
803 HC3    17.974761    0.256176   21.483389 H    83 MOH     0.0372 ****
804 O1     18.512852    1.800987   22.701027 O    83 MOH    -0.6497 ****
805 HO1    18.709151    1.807928   23.640772 H    83 MOH     0.4215 ****
806 HC1     8.824337   -3.414384   21.007506 H    84 MOH     0.0372 ****
807 C1      9.612420   -3.380092   20.255145 C    84 MOH     0.1166 ****
808 HC2     9.192109   -2.988581   19.328128 H    84 MOH     0.0372 ****
809 HC3    10.010214   -4.377850   20.068468 H    84 MOH     0.0372 ****
810 O1     10.618741   -2.479904   20.605162 O    84 MOH    -0.6497 ****
811 HO1    11.446084   -2.944899   20.461620 H    84 MOH     0.4215 ****
812 HC1    12.028053   -4.034922   18.289388 H    85 MOH     0.0372 ****
813 C1     12.458179   -4.604836   19.113874 C    85 MOH     0.1166 ****
814 HC2    13.233561   -5.248644   18.698803 H    85 MOH     0.0372 ****
815 HC3    11.712820   -5.253543   19.574201 H    85 MOH     0.0372 ****
816 O1     13.027447   -3.710364   20.053619 O    85 MOH    -0.6497 ****
817 HO1    13.441984   -4.249660   20.730320 H    85 MOH     0.4215 ****
818 HC1    22.375325    4.680363   20.574757 H    86 MOH     0.0372 ****
819 C1     23.118952    4.159438   19.972302 C    86 MOH     0.1166 ****
820 HC2    24.034630    4.748948   19.924219 H    86 MOH     0.0372 ****
821 HC3    22.782934    4.038188   18.942047 H    86 MOH     0.0372 ****
822 O1     23.457279    2.930610   20.556372 O    86 MOH    -0.6497 ****
823 HO1    22.753489    2.659125   21.149635 H    86 MOH     0.4215 ****
824 HC1    23.091239   -0.996738   25.234591 H    87 MOH     0.0372 ****
825 C1     23.051979   -2.066349   25.029530 C    87 MOH     0.1166 ****
826 HC2    22.273711   -2.494601   25.660976 H    87 MOH     0.0372 ****
827 HC3    24.020773   -2.502766   25.273482 H    87 MOH     0.0372 ****
828 O1     22.763304   -2.358246   23.661278 O    87 MOH    -0.6497 ****
829 HO1    23.192853   -3.172701   23.389042 H    87 MOH     0.4215 ****
830 HC1    27.252780   -2.316605   22.988112 H    88 MOH     0.0372 ****
831 C1     26.730278   -1.387432   23.215801 C    88 MOH     0.1166 ****
832 HC2    25.697976   -1.600537   23.494401 H    88 MOH     0.0372 ****
833 HC3    26.770693   -0.741175   22.339696 H    88 MOH     0.0372 ****
834 O1     27.417902   -0.824049   24.282118 O    88 MOH    -0.6497 ****
835 HO1    27.880360   -1.539300   24.724767 H    88 MOH     0.4215 ****
836 HC1    22.125910   -0.172077   22.606982 H    89 MOH     0.0372 ****
837 C1     21.188870    0.083895   22.114128 C    89 MOH     0.1166 ****
838 HC2    20.350558   -0.248011   22.727190 H    89 MOH     0.0372 ****
839 HC3    21.170395   -0.414984   21.145392 H    89 MOH     0.0372 ****
840 O1     21.158271    1.467449   21.897047 O    89 MOH    -0.6497 ****
841 HO1    20.242016    1.708723   21.745019 H    89 MOH     0.4215 ****
842 HC1    18.796331   -4.882037   20.899319 H    90 MOH     0.0372 ****
843 C1     19.101749   -5.862241   20.532331 C    90 MOH     0.1166 ****
844 HC2    20.050913   -5.782633   20.002708 H    90 MOH     0.0372 ****
845 HC3    18.335028   -6.254568   19.865529 H    90 MOH     0.0372 ****
846 O1     19.255324   -6.782841   21.606426 O    90 MOH    -0.6497 ****
847 HO1    20.104606   -7.216809   21.498238 H    90 MOH     0.4215 ****
848 HC1    16.082207   -1.206578   15.824414 H    91 MOH     0.0372 ****
849 C1     17.005968   -1.018375   15.276406 C    91 MOH     0.1166 ****
850 HC2    17.596597   -1.933260   15.313882 H    91 MOH     0.0372 ****
851 HC3    17.528469   -0.194938   15.763602 H    91 MOH     0.0372 ****
852 O1     16.732881   -0.666057   13.922296 O    91 MOH    -0.6497 ****
853 HO1    17.514613   -0.243928   13.558843 H    91 MOH     0.4215 ****
854 HC1    13.668883   -5.944707   26.735071 H    92 MOH     0.0372 ****
855 C1     14.525671   -6.202720   26.111403 C    92 MOH     0.1166 ****
856 HC2    14.711577   -5.409494   25.388033 H    92 MOH     0.0372 ****
857 HC3    14.279719   -7.106582   25.554203 H    92 MOH     0.0372 ****
858 O1     15.689031   -6.393372   26.912555 O    92 MOH    -0.6497 ****
859 HO1    16.385316   -6.741200   26.351112 H    92 MOH     0.4215 ****
860 HC1    19.723555   -6.284778   25.918363 H    93 MOH     0.0372 ****
861 C1     19.225302   -7.060450   25.338535 C    93 MOH     0.1166 ****
862 HC2    19.952186   -7.805911   25.016095 H    93 MOH     0.0372 ****
863 HC3    18.762844   -6.586474   24.472330 H    93 MOH     0.0372 ****
864 O1     18.250157   -7.691193   26.135445 O    93 MOH    -0.6497 ****
865 HO1    18.721852   -8.060250   26.884978 H    93 MOH     0.4215 ****
866 HC1    19.048055    5.413985   21.624810 H    94 MOH     0.0372 ****
867 C1     19.640994    5.075547   20.775575 C    94 MOH     0.1166 ****
868 HC2    20.008189    4.079829   21.023770 H    94 MOH     0.0372 ****
869 HC3    20.487967    5.745482   20.623547 H    94 MOH     0.0372 ****
870 O1     18.836745    5.024516   19.605313 O    94 MOH    -0.6497 ****
871 HO1    19.243777    4.374176   19.027607 H    94 MOH     0.4215 ****
872 HC1    18.062518   -2.652185   23.593396 H    95 MOH     0.0372 ****
873 C1     18.989743   -2.828956   24.137161 C    95 MOH     0.1166 ****
874 HC2    18.923925   -3.753639   24.710624 H    95 MOH     0.0372 ****
875 HC3    19.213177   -1.992456   24.799720 H    95 MOH     0.0372 ****
876 O1     19.993178   -2.931018   23.206608 O    95 MOH    -0.6497 ****
877 HO1    20.803200   -2.590131   23.593396 H    95 MOH     0.4215 ****
878 HC1    15.965582   -2.508073   18.320500 H    96 MOH     0.0372 ****
879 C1     16.245597   -3.416426   18.854366 C    96 MOH     0.1166 ****
880 HC2    17.053888   -3.912039   18.316965 H    96 MOH     0.0372 ****
881 HC3    15.414790   -4.122287   18.877701 H    96 MOH     0.0372 ****
882 O1     16.683229   -3.155147   20.173827 O    96 MOH    -0.6497 ****
883 HO1    16.335664   -3.859783   20.725371 H    96 MOH     0.4215 ****
884 HC1    16.074124   -0.974284   23.788557 H    97 MOH     0.0372 ****
885 C1     15.443658   -1.287819   24.620115 C    97 MOH     0.1166 ****
886 HC2    14.467358   -1.600537   24.249591 H    97 MOH     0.0372 ****
887 HC3    15.273339   -0.460708   25.310251 H    97 MOH     0.0372 ****
888 O1     16.045834   -2.341916   25.315908 O    97 MOH    -0.6497 ****
889 HO1    15.395160   -2.696276   25.925434 H    97 MOH     0.4215 ****
890 HC1     8.074359   -6.309681   26.985387 H    98 MOH     0.0372 ****
891 C1      8.718104   -5.525436   26.588700 C    98 MOH     0.1166 ****
892 HC2     8.752168   -4.724045   27.326212 H    98 MOH     0.0372 ****
893 HC3     8.319155   -5.085345   25.673704 H    98 MOH     0.0372 ****
894 O1     10.029844   -5.990023   26.358183 O    98 MOH    -0.6497 ****
895 HO1    10.472094   -5.202920   26.032914 H    98 MOH     0.4215 ****
896 HC1    14.566663    0.726070   21.827750 H    99 MOH     0.0372 ****
897 C1     14.433295   -0.296592   21.474904 C    99 MOH     0.1166 ****
898 HC2    13.434479   -0.374159   21.046397 H    99 MOH     0.0372 ****
899 HC3    14.506618   -1.013476   22.292319 H    99 MOH     0.0372 ****
900 O1     15.353591   -0.573793   20.463034 O    99 MOH    -0.6497 ****
901 HO1    15.469638   -1.521745   20.371110 H    99 MOH     0.4215 ****
902 HC1    16.753665   -8.548515   20.785475 H    100 MOH     0.0372 ****
903 C1     16.016966   -8.202729   21.510259 C    100 MOH     0.1166 ****
904 HC2    15.746189   -9.010652   22.191203 H    100 MOH     0.0372 ****
905 HC3    15.108217   -7.903074   20.989829 H    100 MOH     0.0372 ****
906 O1     16.456907   -7.121279   22.304340 O    100 MOH    -0.6497 ****
907 HO1    17.404339   -7.189865   22.440105 H    100 MOH     0.4215 ****
908 HC1    17.702252    8.006770   21.137614 H    101 MOH     0.0372 ****
909 C1     16.854702    7.342142   21.307319 C    101 MOH     0.1166 ****
910 HC2    15.989254    7.985949   21.463590 H    101 MOH     0.0372 ****
911 HC3    17.087374    6.740384   22.185546 H    101 MOH     0.0372 ****
912 O1     16.721334    6.640363   20.091803 O    101 MOH    -0.6497 ****
913 HO1    17.567152    6.234564   19.886742 H    101 MOH     0.4215 ****
914 HC1    15.590882  -10.799188   26.547688 H    102 MOH     0.0372 ****
915 C1     16.626071  -10.495043   26.391417 C    102 MOH     0.1166 ****
916 HC2    17.214968  -11.397680   26.223833 H    102 MOH     0.0372 ****
917 HC3    16.999039   -9.938192   27.249845 H    102 MOH     0.0372 ****
918 O1     16.623762   -9.763462   25.214792 O    102 MOH    -0.6497 ****
919 HO1    17.261156   -9.054335   25.324393 H    102 MOH     0.4215 ****
920 HC1     7.068615    2.696684   27.236410 H    103 MOH     0.0372 ****
921 C1      6.902338    3.767111   27.355204 C    103 MOH     0.1166 ****
922 HC2     7.255676    4.087994   28.335254 H    103 MOH     0.0372 ****
923 HC3     5.835394    3.980217   27.283079 H    103 MOH     0.0372 ****
924 O1      7.589385    4.481546   26.345455 O    103 MOH    -0.6497 ****
925 HO1     7.498741    3.951639   25.550667 H    103 MOH     0.4215 ****
926 HC1     9.546602    2.247611   26.912555 H    104 MOH     0.0372 ****
927 C1      9.813915    1.242912   27.241360 C    104 MOH     0.1166 ****
928 HC2    10.758460    0.953464   26.781033 H    104 MOH     0.0372 ****
929 HC3     9.051235    0.529294   26.931647 H    104 MOH     0.0372 ****
930 O1      9.981347    1.250669   28.670422 O    104 MOH    -0.6497 ****
931 HO1     9.152849    1.438463   29.117314 H    104 MOH     0.4215 ****
932 HC1    20.706205    1.131869   18.937098 H    105 MOH     0.0372 ****
933 C1     19.781868    1.647078   18.675468 C    105 MOH     0.1166 ****
934 HC2    19.068840    1.600129   19.499247 H    105 MOH     0.0372 ****
935 HC3    19.345968    1.200862   17.782392 H    105 MOH     0.0372 ****
936 O1     20.019736    2.996338   18.396161 O    105 MOH    -0.6497 ****
937 HO1    20.524340    3.026549   17.580160 H    105 MOH     0.4215 ****
938 HC1    10.965729   -9.087811   19.476620 H    106 MOH     0.0372 ****
939 C1     11.479571   -8.778767   20.386666 C    106 MOH     0.1166 ****
940 HC2    12.562680   -8.804895   20.270701 H    106 MOH     0.0372 ****
941 HC3    11.176462   -9.418084   21.216810 H    106 MOH     0.0372 ****
942 O1     11.040207   -7.521362   20.669509 O    106 MOH    -0.6497 ****
943 HO1    10.708231   -7.159246   19.844316 H    106 MOH     0.4215 ****
944 HC1     4.342367    0.334151   25.310958 H    107 MOH     0.0372 ****
945 C1      4.901242    0.966528   26.000387 C    107 MOH     0.1166 ****
946 HC2     4.946275    1.967145   25.569759 H    107 MOH     0.0372 ****
947 HC3     5.914491    0.572160   26.080997 H    107 MOH     0.0372 ****
948 O1      4.236134    0.978775   27.288736 O    107 MOH    -0.6497 ****
949 HO1     4.703210    0.360688   27.854421 H    107 MOH     0.4215 ****
950 HC1    12.817291   -5.878979   23.210144 H    108 MOH     0.0372 ****
951 C1     11.935100   -5.295593   23.471066 C    108 MOH     0.1166 ****
952 HC2    12.239364   -4.297017   23.782193 H    108 MOH     0.0372 ****
953 HC3    11.399896   -5.785490   24.284239 H    108 MOH     0.0372 ****
954 O1     11.114108   -5.240479   22.303633 O    108 MOH    -0.6497 ****
955 HO1    11.023464   -6.129236   21.950787 H    108 MOH     0.4215 ****
956 HC1    14.547610   -4.016142   28.276564 H    109 MOH     0.0372 ****
957 C1     14.235841   -2.972660   28.241209 C    109 MOH     0.1166 ****
958 HC2    15.041822   -2.315380   28.569306 H    109 MOH     0.0372 ****
959 HC3    13.392909   -2.849369   28.920031 H    109 MOH     0.0372 ****
960 O1     13.782621   -2.626465   26.947203 O    109 MOH    -0.6497 ****
961 HO1    13.571311   -1.690760   26.976902 H    109 MOH     0.4215 ****
962 HC1    10.272909   -4.845295   29.093272 H    110 MOH     0.0372 ****
963 C1     11.044248   -5.138417   29.806036 C    110 MOH     0.1166 ****
964 HC2    11.942028   -5.394797   29.243179 H    110 MOH     0.0372 ****
965 HC3    10.714004   -6.026765   30.344851 H    110 MOH     0.0372 ****
966 O1     11.304633   -4.061050   30.714668 O    110 MOH    -0.6497 ****
967 HO1    10.638371   -4.085953   31.405511 H    110 MOH     0.4215 ****
968 HC1     5.843477   -2.806911   28.642845 H    111 MOH     0.0372 ****
969 C1      6.431220   -1.891210   28.704363 C    111 MOH     0.1166 ****
970 HC2     6.897142   -1.680554   27.741284 H    111 MOH     0.0372 ****
971 HC3     7.219880   -2.039812   29.441169 H    111 MOH     0.0372 ****
972 O1      5.649488   -0.766486   29.079837 O    111 MOH    -0.6497 ****
973 HO1     5.249384   -0.930602   29.936851 H    111 MOH     0.4215 ****
974 HC1    19.578640   -0.199429   26.192720 H    112 MOH     0.0372 ****
975 C1     20.360372    0.473772   25.841288 C    112 MOH     0.1166 ****
976 HC2    20.919825    0.038988   25.013266 H    112 MOH     0.0372 ****
977 HC3    21.045687    0.678713   26.662946 H    112 MOH     0.0372 ****
978 O1     19.786486    1.673206   25.395811 O    112 MOH    -0.6497 ****
979 HO1    19.981631    2.316605   26.081705 H    112 MOH     0.4215 ****
980 HC1    19.767896    8.872909   18.784362 H    113 MOH     0.0372 ****
981 C1     20.180701    9.880466   18.747593 C    113 MOH     0.1166 ****
982 HC2    20.095253   10.351176   19.726936 H    113 MOH     0.0372 ****
983 HC3    19.603928   10.468344   18.033415 H    113 MOH     0.0372 ****
984 O1     21.520154    9.824944   18.316258 O    113 MOH    -0.6497 ****
985 HO1    21.553640    9.164399   17.620465 H    113 MOH     0.4215 ****
986 HC1    22.564003    7.314626   19.476620 H    114 MOH     0.0372 ****
987 C1     23.077845    7.623670   20.386666 C    114 MOH     0.1166 ****
988 HC2    24.160954    7.597542   20.270701 H    114 MOH     0.0372 ****
989 HC3    22.774736    6.984353   21.216810 H    114 MOH     0.0372 ****
990 O1     22.638481    8.881074   20.669509 O    114 MOH    -0.6497 ****
991 HO1    22.306505    9.243191   19.844316 H    114 MOH     0.4215 ****
992 HC1     2.744954  -30.123212   16.719752 H    115 MOH     0.0372 ****
993 C1      2.290579  -29.825191   15.775058 C    115 MOH     0.1166 ****
994 HC2     1.209780  -29.959913   15.823141 H    115 MOH     0.0372 ****
995 HC3     2.713200  -30.449811   14.987341 H    115 MOH     0.0372 ****
996 O1      2.572326  -28.467766   15.515549 O    115 MOH    -0.6497 ****
997 HO1     2.302704  -28.273439   14.614695 H    115 MOH     0.4215 ****
998 HC1     3.785916  -27.209544   19.843043 H    116 MOH     0.0372 ****
999 C1      3.444125  -27.879072   19.053912 C    116 MOH     0.1166 ****
1000 HC2     2.945872  -28.755172   19.469690 H    116 MOH     0.0372 ****
1001 HC3     4.316501  -28.197097   18.483277 H    116 MOH     0.0372 ****
1002 O1      2.662970  -27.149124   18.131844 O    116 MOH    -0.6497 ****
1003 HO1     2.690106  -27.636164   17.305237 H    116 MOH     0.4215 ****
1004 HC1    -1.072486  -29.586774   14.411756 H    117 MOH     0.0372 ****
1005 C1     -1.980081  -29.650461   15.011382 C    117 MOH     0.1166 ****
1006 HC2    -2.590917  -30.497168   14.698841 H    117 MOH     0.0372 ****
1007 HC3    -2.529141  -28.718430   14.879153 H    117 MOH     0.0372 ****
1008 O1     -1.608267  -29.833764   16.335793 O    117 MOH    -0.6497 ****
1009 HO1    -1.081146  -30.636380   16.334379 H    117 MOH     0.4215 ****
1010 HC1     3.594236  -27.138917   12.775511 H    118 MOH     0.0372 ****
1011 C1      2.686642  -26.759246   12.305992 C    118 MOH     0.1166 ****
1012 HC2     2.817123  -26.779251   11.223411 H    118 MOH     0.0372 ****
1013 HC3     2.543459  -25.728420   12.627725 H    118 MOH     0.0372 ****
1014 O1      1.546375  -27.552473   12.680051 O    118 MOH    -0.6497 ****
1015 HO1     0.773303  -27.047470   12.417715 H    118 MOH     0.4215 ****
1016 HC1    12.880223  -18.464621   12.259323 H    119 MOH     0.0372 ****
1017 C1     11.843879  -18.325817   12.566207 C    119 MOH     0.1166 ****
1018 HC2    11.280385  -17.961659   11.707779 H    119 MOH     0.0372 ****
1019 HC3    11.774019  -17.575864   13.354631 H    119 MOH     0.0372 ****
1020 O1     11.318490  -19.568524   12.983400 O    119 MOH    -0.6497 ****
1021 HO1    10.555810  -19.416248   13.545550 H    119 MOH     0.4215 ****
1022 HC1    13.929845  -19.915944   16.928349 H    120 MOH     0.0372 ****
1023 C1     14.533754  -19.364400   17.648891 C    120 MOH     0.1166 ****
1024 HC2    15.345508  -19.999635   18.002444 H    120 MOH     0.0372 ****
1025 HC3    13.885389  -19.078626   18.477620 H    120 MOH     0.0372 ****
1026 O1     15.038358  -18.240493   16.993403 O    120 MOH    -0.6497 ****
1027 HO1    15.851267  -17.978806   17.432516 H    120 MOH     0.4215 ****
1028 HC1    21.330321  -18.432369    3.347656 H    121 MOH     0.0372 ****
1029 C1     21.867834  -18.089849    2.463065 C    121 MOH     0.1166 ****
1030 HC2    21.539899  -18.663846    1.596152 H    121 MOH     0.0372 ****
1031 HC3    22.927272  -18.274377    2.641256 H    121 MOH     0.0372 ****
1032 O1     21.607449  -16.709153    2.194365 O    121 MOH    -0.6497 ****
1033 HO1    21.866680  -16.504213    1.293511 H    121 MOH     0.4215 ****
1034 HC1    11.991680  -25.237460   21.313118 H    122 MOH     0.0372 ****
1035 C1     10.971502  -25.530174   21.561312 C    122 MOH     0.1166 ****
1036 HC2    10.810422  -25.472611   22.636822 H    122 MOH     0.0372 ****
1037 HC3    10.763079  -26.552428   21.244529 H    122 MOH     0.0372 ****
1038 O1     10.085270  -24.637743   20.960272 O    122 MOH    -0.6497 ****
1039 HO1    10.536758  -24.261338   20.200839 H    122 MOH     0.4215 ****
1040 HC1    15.788913  -21.289291    6.416499 H    123 MOH     0.0372 ****
1041 C1     15.834524  -21.744080    5.426550 C    123 MOH     0.1166 ****
1042 HC2    16.751933  -22.322976    5.317655 H    123 MOH     0.0372 ****
1043 HC3    15.824132  -20.966367    4.663582 H    123 MOH     0.0372 ****
1044 O1     14.731208  -22.580580    5.209468 O    123 MOH    -0.6497 ****
1045 HO1    14.990438  -23.468112    5.466855 H    123 MOH     0.4215 ****
1046 HC1     6.590569  -22.450757   17.517369 H    124 MOH     0.0372 ****
1047 C1      7.630954  -22.423405   17.191392 C    124 MOH     0.1166 ****
1048 HC2     8.215232  -23.063130   17.853951 H    124 MOH     0.0372 ****
1049 HC3     7.972168  -21.389720   17.245133 H    124 MOH     0.0372 ****
1050 O1      7.697926  -22.905546   15.868396 O    124 MOH    -0.6497 ****
1051 HO1     7.103256  -23.658356   15.824555 H    124 MOH     0.4215 ****
1052 HC1     6.416786  -27.470578    8.501757 H    125 MOH     0.0372 ****
1053 C1      6.459510  -27.228895    9.563832 C    125 MOH     0.1166 ****
1054 HC2     7.496431  -27.290949    9.894758 H    125 MOH     0.0372 ****
1055 HC3     5.861953  -27.930674   10.145780 H    125 MOH     0.0372 ****
1056 O1      6.025920  -25.935157    9.833239 O    125 MOH    -0.6497 ****
1057 HO1     5.256312  -25.743688    9.292303 H    125 MOH     0.4215 ****
1058 HC1     3.813514  -23.533024   16.216999 H    126 MOH     0.0372 ****
1059 C1      3.378769  -24.418514   16.680154 C    126 MOH     0.1166 ****
1060 HC2     2.966541  -25.093348   15.929914 H    126 MOH     0.0372 ****
1061 HC3     2.556622  -24.132332   17.337056 H    126 MOH     0.0372 ****
1062 O1      4.284054  -25.121109   17.475649 O    126 MOH    -0.6497 ****
1063 HO1     3.757511  -25.838810   17.836274 H    126 MOH     0.4215 ****
1064 HC1    17.402607  -17.974723   13.986077 H    127 MOH     0.0372 ****
1065 C1     16.736922  -17.115769   14.070930 C    127 MOH     0.1166 ****
1066 HC2    15.694805  -17.435835   14.063859 H    127 MOH     0.0372 ****
1067 HC3    16.872022  -16.491149   13.188461 H    127 MOH     0.0372 ****
1068 O1     16.962666  -16.318868   15.274426 O    127 MOH    -0.6497 ****
1069 HO1    16.889920  -16.885925   16.044465 H    127 MOH     0.4215 ****
1070 HC1     9.726158  -25.361159    8.888545 H    128 MOH     0.0372 ****
1071 C1      9.185758  -24.491591    8.515192 C    128 MOH     0.1166 ****
1072 HC2     8.742353  -24.821047    7.575447 H    128 MOH     0.0372 ****
1073 HC3     9.908601  -23.688566    8.368821 H    128 MOH     0.0372 ****
1074 O1      8.194448  -24.153153    9.508677 O    128 MOH    -0.6497 ****
1075 HO1     7.558785  -24.867179    9.591409 H    128 MOH     0.4215 ****
1076 HC1    14.343228  -13.720776   16.719752 H    129 MOH     0.0372 ****
1077 C1     13.888853  -13.422755   15.775058 C    129 MOH     0.1166 ****
1078 HC2    12.808054  -13.557477   15.823141 H    129 MOH     0.0372 ****
1079 HC3    14.311474  -14.047375   14.987341 H    129 MOH     0.0372 ****
1080 O1     14.170600  -12.065329   15.515549 O    129 MOH    -0.6497 ****
1081 HO1    13.900978  -11.871003   14.614695 H    129 MOH     0.4215 ****
1082 HC1    15.384191  -10.807108   19.843043 H    130 MOH     0.0372 ****
1083 C1     15.042399  -11.476635   19.053912 C    130 MOH     0.1166 ****
1084 HC2    14.544146  -12.352736   19.469690 H    130 MOH     0.0372 ****
1085 HC3    15.914775  -11.794660   18.483277 H    130 MOH     0.0372 ****
1086 O1     14.261244  -10.746687   18.131844 O    130 MOH    -0.6497 ****
1087 HO1    14.288380  -11.233727   17.305237 H    130 MOH     0.4215 ****
1088 HC1    20.914051  -19.476669   16.802484 H    131 MOH     0.0372 ****
1089 C1     21.396716  -20.442584   16.655406 C    131 MOH     0.1166 ****
1090 HC2    20.623644  -21.196619   16.507620 H    131 MOH     0.0372 ****
1091 HC3    21.961365  -20.685083   17.554845 H    131 MOH     0.0372 ****
1092 O1     22.304888  -20.414823   15.532520 O    131 MOH    -0.6497 ****
1093 HO1    23.016184  -19.810616   15.761623 H    131 MOH     0.4215 ****
1094 HC1    19.408322  -14.675260    7.930415 H    132 MOH     0.0372 ****
1095 C1     18.827508  -14.293957    8.770458 C    132 MOH     0.1166 ****
1096 HC2    19.124843  -13.286808    9.062493 H    132 MOH     0.0372 ****
1097 HC3    19.035354  -14.949195    9.616865 H    132 MOH     0.0372 ****
1098 O1     17.448218  -14.337639    8.485494 O    132 MOH    -0.6497 ****
1099 HO1    17.042918  -15.012473    9.034916 H    132 MOH     0.4215 ****
1100 HC1     7.986024  -25.032111   18.956331 H    133 MOH     0.0372 ****
1101 C1      7.594581  -25.801251   18.291651 C    133 MOH     0.1166 ****
1102 HC2     8.093989  -25.767366   17.323621 H    133 MOH     0.0372 ****
1103 HC3     6.523019  -25.638768   18.167200 H    133 MOH     0.0372 ****
1104 O1      7.735454  -27.068045   18.876428 O    133 MOH    -0.6497 ****
1105 HO1     7.289162  -27.068454   19.725663 H    133 MOH     0.4215 ****
1106 HC1    18.340801  -23.673053   13.707477 H    134 MOH     0.0372 ****
1107 C1     17.277322  -23.472195   13.575956 C    134 MOH     0.1166 ****
1108 HC2    16.695353  -24.393203   13.602826 H    134 MOH     0.0372 ****
1109 HC3    17.112200  -23.001484   12.606512 H    134 MOH     0.0372 ****
1110 O1     16.826989  -22.581805   14.555298 O    134 MOH    -0.6497 ****
1111 HO1    16.937263  -21.687333   14.225080 H    134 MOH     0.4215 ****
1112 HC1    22.053741  -20.745504   10.910870 H    135 MOH     0.0372 ****
1113 C1     21.649596  -20.399718    9.959811 C    135 MOH     0.1166 ****
1114 HC2    20.716598  -20.923092    9.747679 H    135 MOH     0.0372 ****
1115 HC3    22.370706  -20.544646    9.155831 H    135 MOH     0.0372 ****
1116 O1     21.403067  -19.033719   10.113961 O    135 MOH    -0.6497 ****
1117 HO1    22.227523  -18.578114   10.302051 H    135 MOH     0.4215 ****
1118 HC1    17.251341  -20.073528    8.447310 H    136 MOH     0.0372 ****
1119 C1     17.014050  -20.360118    9.472615 C    136 MOH     0.1166 ****
1120 HC2    17.776153  -21.022705    9.882030 H    136 MOH     0.0372 ****
1121 HC3    16.060845  -20.888799    9.453523 H    136 MOH     0.0372 ****
1122 O1     16.912437  -19.233761   10.310536 O    136 MOH    -0.6497 ****
1123 HO1    17.686086  -18.677318   10.191035 H    136 MOH     0.4215 ****
1124 HC1    24.293283  -18.858172    9.244219 H    137 MOH     0.0372 ****
1125 C1     24.713594  -17.974723    9.725052 C    137 MOH     0.1166 ****
1126 HC2    24.967050  -17.232936    8.967741 H    137 MOH     0.0372 ****
1127 HC3    25.600404  -18.257639   10.291445 H    137 MOH     0.0372 ****
1128 O1     23.708427  -17.478293   10.548124 O    137 MOH    -0.6497 ****
1129 HO1    24.064652  -17.281926   11.417159 H    137 MOH     0.4215 ****
1130 HC1    18.644488  -16.550345   21.820113 H    138 MOH     0.0372 ****
1131 C1     18.601764  -15.676285   21.170282 C    138 MOH     0.1166 ****
1132 HC2    19.402548  -14.976139   21.408577 H    138 MOH     0.0372 ****
1133 HC3    17.662415  -15.160259   21.365444 H    138 MOH     0.0372 ****
1134 O1     18.602341  -16.030645   19.778696 O    138 MOH    -0.6497 ****
1135 HO1    18.711460  -15.238235   19.247659 H    138 MOH     0.4215 ****
1136 HC1    12.958165  -20.819805   10.434280 H    139 MOH     0.0372 ****
1137 C1     12.375618  -21.692640   10.729851 C    139 MOH     0.1166 ****
1138 HC2    12.711636  -22.607525   10.242654 H    139 MOH     0.0372 ****
1139 HC3    11.355440  -21.512603   10.392561 H    139 MOH     0.0372 ****
1140 O1     12.368690  -21.839610   12.132751 O    139 MOH    -0.6497 ****
1141 HO1    12.182206  -20.977797   12.513881 H    139 MOH     0.4215 ****
1142 HC1    12.127358  -23.834311   14.705205 H    140 MOH     0.0372 ****
1143 C1     13.159083  -24.118043   14.499437 C    140 MOH     0.1166 ****
1144 HC2    13.429860  -24.943930   15.156339 H    140 MOH     0.0372 ****
1145 HC3    13.807447  -23.267254   14.710155 H    140 MOH     0.0372 ****
1146 O1     13.297069  -24.437294   13.137549 O    140 MOH    -0.6497 ****
1147 HO1    13.000311  -23.644475   12.685001 H    140 MOH     0.4215 ****
1148 HC1    17.621423  -24.561809    9.018652 H    141 MOH     0.0372 ****
1149 C1     17.635857  -23.854315    8.189216 C    141 MOH     0.1166 ****
1150 HC2    16.645124  -23.423205    8.047795 H    141 MOH     0.0372 ****
1151 HC3    17.974761  -24.347479    7.278463 H    141 MOH     0.0372 ****
1152 O1     18.512852  -22.802667    8.496100 O    141 MOH    -0.6497 ****
1153 HO1    18.709151  -22.795727    9.435845 H    141 MOH     0.4215 ****
1154 HC1    11.417794  -20.079651   15.902337 H    142 MOH     0.0372 ****
1155 C1     11.178194  -20.712436   16.756522 C    142 MOH     0.1166 ****
1156 HC2    10.132613  -20.587920   17.037243 H    142 MOH     0.0372 ****
1157 HC3    11.810392  -20.405025   17.590201 H    142 MOH     0.0372 ****
1158 O1     11.480148  -22.062513   16.440445 O    142 MOH    -0.6497 ****
1159 HO1    11.017691  -22.335631   15.644950 H    142 MOH     0.4215 ****
1160 HC1    22.375325  -19.923292    6.369830 H    143 MOH     0.0372 ****
1161 C1     23.118952  -20.444217    5.767375 C    143 MOH     0.1166 ****
1162 HC2    24.034630  -19.854706    5.719292 H    143 MOH     0.0372 ****
1163 HC3    22.782934  -20.565467    4.737121 H    143 MOH     0.0372 ****
1164 O1     23.457279  -21.673044    6.351446 O    143 MOH    -0.6497 ****
1165 HO1    22.753490  -21.944529    6.944708 H    143 MOH     0.4215 ****
1166 HC1    12.179319  -25.477918   17.643941 H    144 MOH     0.0372 ****
1167 C1     11.169534  -25.078652   17.735865 C    144 MOH     0.1166 ****
1168 HC2    10.556965  -25.820030   18.249224 H    144 MOH     0.0372 ****
1169 HC3    10.768275  -24.886775   16.740258 H    144 MOH     0.0372 ****
1170 O1     11.237661  -23.889833   18.498126 O    144 MOH    -0.6497 ****
1171 HO1    11.571947  -23.196627   17.923955 H    144 MOH     0.4215 ****
1172 HC1     7.923093  -18.241717   16.067800 H    145 MOH     0.0372 ****
1173 C1      8.785654  -17.778764   15.588381 C    145 MOH     0.1166 ****
1174 HC2     9.572583  -17.664046   16.334379 H    145 MOH     0.0372 ****
1175 HC3     8.468689  -16.786721   15.265941 H    145 MOH     0.0372 ****
1176 O1      9.168438  -18.566275   14.429433 O    145 MOH    -0.6497 ****
1177 HO1     8.474463  -18.520143   13.768288 H    145 MOH     0.4215 ****
1178 HC1    14.609386  -22.804300   22.328523 H    146 MOH     0.0372 ****
1179 C1     15.217336  -21.933507   22.080329 C    146 MOH     0.1166 ****
1180 HC2    16.266959  -22.202951   21.965777 H    146 MOH     0.0372 ****
1181 HC3    15.160756  -21.211315   22.895623 H    146 MOH     0.0372 ****
1182 O1     14.822429  -21.371349   20.870469 O    146 MOH    -0.6497 ****
1183 HO1    15.104176  -21.969841   20.174676 H    146 MOH     0.4215 ****
1184 HC1    20.190054  -16.554427   11.640604 H    147 MOH     0.0372 ****
1185 C1     19.175073  -16.937772   11.536660 C    147 MOH     0.1166 ****
1186 HC2    18.453962  -16.120459   11.557873 H    147 MOH     0.0372 ****
1187 HC3    18.940091  -17.632611   12.342761 H    147 MOH     0.0372 ****
1188 O1     19.047478  -17.649757   10.354377 O    147 MOH    -0.6497 ****
1189 HO1    19.768011  -18.282951   10.322557 H    147 MOH     0.4215 ****
1190 HC1    19.048055  -19.189670    7.419884 H    148 MOH     0.0372 ****
1191 C1     19.640994  -19.528108    6.570649 C    148 MOH     0.1166 ****
1192 HC2    20.008189  -20.523825    6.818843 H    148 MOH     0.0372 ****
1193 HC3    20.487967  -18.858172    6.418621 H    148 MOH     0.0372 ****
1194 O1     18.836745  -19.579139    5.400387 O    148 MOH    -0.6497 ****
1195 HO1    19.243777  -20.229478    4.822681 H    148 MOH     0.4215 ****
1196 HC1    14.804531  -18.868787   13.082395 H    149 MOH     0.0372 ****
1197 C1     14.985819  -19.906962   13.361702 C    149 MOH     0.1166 ****
1198 HC2    14.326485  -20.544238   12.772682 H    149 MOH     0.0372 ****
1199 HC3    14.761230  -20.061688   14.417413 H    149 MOH     0.0372 ****
1200 O1     16.316034  -20.302555   13.120579 O    149 MOH    -0.6497 ****
1201 HO1    16.495590  -20.194369   12.183662 H    149 MOH     0.4215 ****
1202 HC1    18.692985  -24.656931   16.740966 H    150 MOH     0.0372 ****
1203 C1     19.146782  -23.777564   17.197756 C    150 MOH     0.1166 ****
1204 HC2    19.983940  -23.460764   16.575503 H    150 MOH     0.0372 ****
1205 HC3    19.450469  -24.026596   18.214576 H    150 MOH     0.0372 ****
1206 O1     18.196464  -22.779805   17.162401 O    150 MOH    -0.6497 ****
1207 HO1    17.868529  -22.724284   16.261547 H    150 MOH     0.4215 ****
1208 HC1    10.525788  -13.184338   14.411756 H    151 MOH     0.0372 ****
1209 C1      9.618193  -13.248024   15.011382 C    151 MOH     0.1166 ****
1210 HC2     9.007357  -14.094731   14.698841 H    151 MOH     0.0372 ****
1211 HC3     9.069133  -12.315994   14.879153 H    151 MOH     0.0372 ****
1212 O1      9.990007  -13.431328   16.335793 O    151 MOH    -0.6497 ****
1213 HO1    10.517128  -14.233944   16.334379 H    151 MOH     0.4215 ****
1214 HC1    22.712498  -17.704871   14.815514 H    152 MOH     0.0372 ****
1215 C1     22.220018  -17.268454   13.946480 C    152 MOH     0.1166 ****
1216 HC2    21.277782  -16.781005   14.196795 H    152 MOH     0.0372 ****
1217 HC3    21.967716  -18.102913   13.291699 H    152 MOH     0.0372 ****
1218 O1     23.057753  -16.343363   13.246444 O    152 MOH    -0.6497 ****
1219 HO1    22.516776  -15.643625   12.874506 H    152 MOH     0.4215 ****
1220 HC1    18.736286  -20.845525   12.727427 H    153 MOH     0.0372 ****
1221 C1     19.392734  -20.569957   13.552621 C    153 MOH     0.1166 ****
1222 HC2    18.845983  -20.605883   14.495901 H    153 MOH     0.0372 ****
1223 HC3    19.739144  -19.547295   13.402007 H    153 MOH     0.0372 ****
1224 O1     20.511638  -21.441976   13.617675 O    153 MOH    -0.6497 ****
1225 HO1    21.116701  -21.115377   14.288012 H    153 MOH     0.4215 ****
1226 HC1    15.192510  -10.736481   12.775511 H    154 MOH     0.0372 ****
1227 C1     14.284916  -10.356810   12.305992 C    154 MOH     0.1166 ****
1228 HC2    14.415397  -10.376814   11.223411 H    154 MOH     0.0372 ****
1229 HC3    14.141733   -9.325983   12.627725 H    154 MOH     0.0372 ****
1230 O1     13.144649  -11.150036   12.680051 O    154 MOH    -0.6497 ****
1231 HO1    12.371577  -10.645033   12.417715 H    154 MOH     0.4215 ****
1232 HC1    17.350068  -19.206408   19.287257 H    155 MOH     0.0372 ****
1233 C1     17.932037  -18.963909   18.397717 C    155 MOH     0.1166 ****
1234 HC2    17.895664  -19.785712   17.682832 H    155 MOH     0.0372 ****
1235 HC3    18.959143  -18.820613   18.735007 H    155 MOH     0.0372 ****
1236 O1     17.466116  -17.719568   17.865972 O    155 MOH    -0.6497 ****
1237 HO1    17.881808  -17.042284   18.404081 H    155 MOH     0.4215 ****
1238 HC1    14.844368  -23.772665   16.958754 H    156 MOH     0.0372 ****
1239 C1     15.007181  -23.996794   18.013051 C    156 MOH     0.1166 ****
1240 HC2    15.574716  -24.923517   18.104974 H    156 MOH     0.0372 ****
1241 HC3    14.023376  -24.114369   18.467013 H    156 MOH     0.0372 ****
1242 O1     15.700001  -22.920243   18.604899 O    156 MOH    -0.6497 ****
1243 HO1    16.538314  -22.829612   18.146694 H    156 MOH     0.4215 ****
1244 HC1    17.702252  -16.596885    6.932687 H    157 MOH     0.0372 ****
1245 C1     16.854702  -17.261513    7.102393 C    157 MOH     0.1166 ****
1246 HC2    15.989254  -16.617706    7.258664 H    157 MOH     0.0372 ****
1247 HC3    17.087374  -17.863271    7.980620 H    157 MOH     0.0372 ****
1248 O1     16.721334  -17.963292    5.886876 O    157 MOH    -0.6497 ****
1249 HO1    17.567152  -18.369091    5.681815 H    157 MOH     0.4215 ****
1250 HC1     7.068615  -21.906971   13.031483 H    158 MOH     0.0372 ****
1251 C1      6.902338  -20.836544   13.150277 C    158 MOH     0.1166 ****
1252 HC2     7.255676  -20.515660   14.130327 H    158 MOH     0.0372 ****
1253 HC3     5.835395  -20.623438   13.078152 H    158 MOH     0.0372 ****
1254 O1      7.589385  -20.122109   12.140529 O    158 MOH    -0.6497 ****
1255 HO1     7.498741  -20.652015   11.345741 H    158 MOH     0.4215 ****
1256 HC1    13.731814  -15.590961   10.182550 H    159 MOH     0.0372 ****
1257 C1     14.603036  -16.246200   10.163458 C    159 MOH     0.1166 ****
1258 HC2    14.602458  -16.817747    9.235734 H    159 MOH     0.0372 ****
1259 HC3    14.575323  -16.955327   10.991480 H    159 MOH     0.0372 ****
1260 O1     15.781408  -15.461547   10.236997 O    159 MOH    -0.6497 ****
1261 HO1    15.751963  -14.950828   11.049463 H    159 MOH     0.4215 ****
1262 HC1     9.546602  -22.356044   12.707628 H    160 MOH     0.0372 ****
1263 C1      9.813915  -23.360743   13.036433 C    160 MOH     0.1166 ****
1264 HC2    10.758460  -23.650191   12.576106 H    160 MOH     0.0372 ****
1265 HC3     9.051236  -24.074361   12.726720 H    160 MOH     0.0372 ****
1266 O1      9.981347  -23.352986   14.465496 O    160 MOH    -0.6497 ****
1267 HO1     9.152849  -23.165192   14.912387 H    160 MOH     0.4215 ****
1268 HC1    27.480256  -21.219481   10.138002 H    161 MOH     0.0372 ****
1269 C1     27.033387  -20.805517    9.234320 C    161 MOH     0.1166 ****
1270 HC2    26.005704  -20.486675    9.406147 H    161 MOH     0.0372 ****
1271 HC3    27.063987  -21.577923    8.464988 H    161 MOH     0.0372 ****
1272 O1     27.843987  -19.741213    8.846118 O    161 MOH    -0.6497 ****
1273 HO1    28.025852  -19.194977    9.614036 H    161 MOH     0.4215 ****
1274 HC1    20.706205  -23.471786    4.732171 H    162 MOH     0.0372 ****
1275 C1     19.781868  -22.956577    4.470542 C    162 MOH     0.1166 ****
1276 HC2    19.068840  -23.003526    5.294321 H    162 MOH     0.0372 ****
1277 HC3    19.345968  -23.402792    3.577466 H    162 MOH     0.0372 ****
1278 O1     20.019736  -21.607316    4.191234 O    162 MOH    -0.6497 ****
1279 HO1    20.524340  -21.577106    3.375233 H    162 MOH     0.4215 ****
1280 HC1    12.428157  -16.278451   14.784401 H    163 MOH     0.0372 ****
1281 C1     12.057498  -16.675269   15.729096 C    163 MOH     0.1166 ****
1282 HC2    12.911977  -16.798151   16.394483 H    163 MOH     0.0372 ****
1283 HC3    11.585803  -17.650982   15.613130 H    163 MOH     0.0372 ****
1284 O1     11.202443  -15.739972   16.291245 O    163 MOH    -0.6497 ****
1285 HO1    11.387195  -15.738339   17.233112 H    163 MOH     0.4215 ****
1286 HC1    11.716284  -20.953303   20.522572 H    164 MOH     0.0372 ****
1287 C1     11.649889  -21.213765   21.578990 C    164 MOH     0.1166 ****
1288 HC2    11.757853  -22.291949   21.702734 H    164 MOH     0.0372 ****
1289 HC3    10.666084  -20.899006   21.927594 H    164 MOH     0.0372 ****
1290 O1     12.633694  -20.494840   22.302360 O    164 MOH    -0.6497 ****
1291 HO1    13.456418  -20.603842   21.819406 H    164 MOH     0.4215 ****
1292 HC1    12.425848  -14.864688   11.709194 H    165 MOH     0.0372 ****
1293 C1     12.992228  -14.559726   12.589541 C    165 MOH     0.1166 ****
1294 HC2    13.377898  -15.453382   13.080981 H    165 MOH     0.0372 ****
1295 HC3    12.338091  -14.035944   13.286042 H    165 MOH     0.0372 ****
1296 O1     14.086885  -13.745271   12.184369 O    165 MOH    -0.6497 ****
1297 HO1    13.735856  -12.869986   12.007593 H    165 MOH     0.4215 ****
1298 HC1     4.342367  -24.269503   11.106031 H    166 MOH     0.0372 ****
1299 C1      4.901242  -23.637127   11.795461 C    166 MOH     0.1166 ****
1300 HC2     4.946275  -22.636510   11.364833 H    166 MOH     0.0372 ****
1301 HC3     5.914492  -24.031495   11.876071 H    166 MOH     0.0372 ****
1302 O1      4.236134  -23.624879   13.083809 O    166 MOH    -0.6497 ****
1303 HO1     4.703211  -24.242967   13.649495 H    166 MOH     0.4215 ****
1304 HC1     5.843477  -27.410566   14.437919 H    167 MOH     0.0372 ****
1305 C1      6.431220  -26.494865   14.499437 C    167 MOH     0.1166 ****
1306 HC2     6.897142  -26.284209   13.536357 H    167 MOH     0.0372 ****
1307 HC3     7.219880  -26.643467   15.236242 H    167 MOH     0.0372 ****
1308 O1      5.649488  -25.370141   14.874911 O    167 MOH    -0.6497 ****
1309 HO1     5.249384  -25.534257   15.731924 H    167 MOH     0.4215 ****
1310 HC1    19.660624  -16.737322   16.917035 H    168 MOH     0.0372 ****
1311 C1     20.606324  -16.394394   17.337056 C    168 MOH     0.1166 ****
1312 HC2    20.492586  -15.419905   17.812939 H    168 MOH     0.0372 ****
1313 HC3    21.336095  -16.280901   16.535197 H    168 MOH     0.0372 ****
1314 O1     21.047997  -17.316627   18.309328 O    168 MOH    -0.6497 ****
1315 HO1    21.879381  -17.704871   18.027193 H    168 MOH     0.4215 ****
1316 HC1    24.478497   -2.062185   12.259323 H    169 MOH     0.0372 ****
1317 C1     23.442153   -1.923380   12.566207 C    169 MOH     0.1166 ****
1318 HC2    22.878659   -1.559223   11.707779 H    169 MOH     0.0372 ****
1319 HC3    23.372293   -1.173428   13.354631 H    169 MOH     0.0372 ****
1320 O1     22.916764   -3.166088   12.983400 O    169 MOH    -0.6497 ****
1321 HO1    22.154084   -3.013811   13.545550 H    169 MOH     0.4215 ****
1322 HC1    18.976926  -12.603155   16.350642 H    170 MOH     0.0372 ****
1323 C1     18.176141  -12.997115   16.976432 C    170 MOH     0.1166 ****
1324 HC2    17.610338  -13.727471   16.397312 H    170 MOH     0.0372 ****
1325 HC3    17.503528  -12.220218   17.337764 H    170 MOH     0.0372 ****
1326 O1     18.673240  -13.738086   18.020829 O    170 MOH    -0.6497 ****
1327 HO1    19.217681  -13.142043   18.539845 H    170 MOH     0.4215 ****
1328 HC1    25.528119   -3.513507   16.928349 H    171 MOH     0.0372 ****
1329 C1     26.132028   -2.961964   17.648891 C    171 MOH     0.1166 ****
1330 HC2    26.943782   -3.597198   18.002444 H    171 MOH     0.0372 ****
1331 HC3    25.483663   -2.676190   18.477620 H    171 MOH     0.0372 ****
1332 O1     26.636632   -1.838056   16.993403 O    171 MOH    -0.6497 ****
1333 HO1    27.449541   -1.576369   17.432516 H    171 MOH     0.4215 ****
1334 HC1    23.589954   -8.835024   21.313118 H    172 MOH     0.0372 ****
1335 C1     22.569777   -9.127738   21.561312 C    172 MOH     0.1166 ****
1336 HC2    22.408696   -9.070175   22.636822 H    172 MOH     0.0372 ****
1337 HC3    22.361353  -10.149991   21.244529 H    172 MOH     0.0372 ****
1338 O1     21.683544   -8.235307   20.960272 O    172 MOH    -0.6497 ****
1339 HO1    22.135032   -7.858902   20.200839 H    172 MOH     0.4215 ****
1340 HC1    27.387187   -4.886854    6.416499 H    173 MOH     0.0372 ****
1341 C1     27.432798   -5.341643    5.426550 C    173 MOH     0.1166 ****
1342 HC2    28.350208   -5.920539    5.317655 H    173 MOH     0.0372 ****
1343 HC3    27.422406   -4.563930    4.663582 H    173 MOH     0.0372 ****
1344 O1     26.329482   -6.178144    5.209468 O    173 MOH    -0.6497 ****
1345 HO1    26.588712   -7.065676    5.466855 H    173 MOH     0.4215 ****
1346 HC1    18.188843   -6.048321   17.517369 H    174 MOH     0.0372 ****
1347 C1     19.229228   -6.020968   17.191392 C    174 MOH     0.1166 ****
1348 HC2    19.813506   -6.660693   17.853951 H    174 MOH     0.0372 ****
1349 HC3    19.570442   -4.987283   17.245133 H    174 MOH     0.0372 ****
1350 O1     19.296201   -6.503109   15.868396 O    174 MOH    -0.6497 ****
1351 HO1    18.701530   -7.255919   15.824555 H    174 MOH     0.4215 ****
1352 HC1    21.069243  -10.730520   13.357460 H    175 MOH     0.0372 ****
1353 C1     21.983766  -10.424334   12.849757 C    175 MOH     0.1166 ****
1354 HC2    22.579014   -9.769912   13.486860 H    175 MOH     0.0372 ****
1355 HC3    21.708370   -9.878098   11.947489 H    175 MOH     0.0372 ****
1356 O1     22.685824  -11.563755   12.451656 O    175 MOH    -0.6497 ****
1357 HO1    23.620554  -11.364938   12.541458 H    175 MOH     0.4215 ****
1358 HC1    18.015060  -11.068142    8.501757 H    176 MOH     0.0372 ****
1359 C1     18.057784  -10.826459    9.563832 C    176 MOH     0.1166 ****
1360 HC2    19.094705  -10.888513    9.894758 H    176 MOH     0.0372 ****
1361 HC3    17.460227  -11.528238   10.145780 H    176 MOH     0.0372 ****
1362 O1     17.624194   -9.532720    9.833239 O    176 MOH    -0.6497 ****
1363 HO1    16.854586   -9.341252    9.292303 H    176 MOH     0.4215 ****
1364 HC1    15.411788   -7.130587   16.216999 H    177 MOH     0.0372 ****
1365 C1     14.977043   -8.016078   16.680154 C    177 MOH     0.1166 ****
1366 HC2    14.564815   -8.690912   15.929914 H    177 MOH     0.0372 ****
1367 HC3    14.154896   -7.729895   17.337056 H    177 MOH     0.0372 ****
1368 O1     15.882328   -8.718673   17.475649 O    177 MOH    -0.6497 ****
1369 HO1    15.355785   -9.436373   17.836274 H    177 MOH     0.4215 ****
1370 HC1    29.000881   -1.572287   13.986077 H    178 MOH     0.0372 ****
1371 C1     28.335196   -0.713332   14.070930 C    178 MOH     0.1166 ****
1372 HC2    27.293079   -1.033399   14.063859 H    178 MOH     0.0372 ****
1373 HC3    28.470296   -0.088712   13.188461 H    178 MOH     0.0372 ****
1374 O1     28.560940    0.083569   15.274426 O    178 MOH    -0.6497 ****
1375 HO1    28.488194   -0.483488   16.044465 H    178 MOH     0.4215 ****
1376 HC1    21.324432   -8.958723    8.888545 H    179 MOH     0.0372 ****
1377 C1     20.784032   -8.089154    8.515192 C    179 MOH     0.1166 ****
1378 HC2    20.340627   -8.418610    7.575447 H    179 MOH     0.0372 ****
1379 HC3    21.506875   -7.286130    8.368821 H    179 MOH     0.0372 ****
1380 O1     19.792722   -7.750716    9.508677 O    179 MOH    -0.6497 ****
1381 HO1    19.157059   -8.464742    9.591409 H    179 MOH     0.4215 ****
1382 HC1    19.767896  -15.730746    4.579436 H    180 MOH     0.0372 ****
1383 C1     20.180701  -14.723189    4.542666 C    180 MOH     0.1166 ****
1384 HC2    20.095253  -14.252479    5.522009 H    180 MOH     0.0372 ****
1385 HC3    19.603928  -14.135311    3.828489 H    180 MOH     0.0372 ****
1386 O1     21.520154  -14.778711    4.111331 O    180 MOH    -0.6497 ****
1387 HO1    21.553640  -15.439256    3.415538 H    180 MOH     0.4215 ****
1388 HC1    25.941502    2.681661   16.719752 H    181 MOH     0.0372 ****
1389 C1     25.487127    2.979682   15.775058 C    181 MOH     0.1166 ****
1390 HC2    24.406328    2.844960   15.823141 H    181 MOH     0.0372 ****
1391 HC3    25.909748    2.355062   14.987341 H    181 MOH     0.0372 ****
1392 O1     25.768874    4.337107   15.515549 O    181 MOH    -0.6497 ****
1393 HO1    25.499252    4.531434   14.614695 H    181 MOH     0.4215 ****
1394 HC1    26.982465    5.595329   19.843043 H    182 MOH     0.0372 ****
1395 C1     26.640673    4.925802   19.053912 C    182 MOH     0.1166 ****
1396 HC2    26.142420    4.049701   19.469690 H    182 MOH     0.0372 ****
1397 HC3    27.513050    4.607776   18.483277 H    182 MOH     0.0372 ****
1398 O1     25.859518    5.655749   18.131844 O    182 MOH    -0.6497 ****
1399 HO1    25.886654    5.168709   17.305237 H    182 MOH     0.4215 ****
1400 HC1    27.205322  -11.316765    8.143254 H    183 MOH     0.0372 ****
1401 C1     27.044241  -12.329629    8.511657 C    183 MOH     0.1166 ****
1402 HC2    26.293109  -12.284722    9.299374 H    183 MOH     0.0372 ****
1403 HC3    27.969156  -12.730121    8.926728 H    183 MOH     0.0372 ****
1404 O1     26.592753  -13.176336    7.455239 O    183 MOH    -0.6497 ****
1405 HO1    26.997476  -14.034474    7.605146 H    183 MOH     0.4215 ****
1406 HC1    19.584298   -8.629675   18.956331 H    184 MOH     0.0372 ****
1407 C1     19.192855   -9.398814   18.291651 C    184 MOH     0.1166 ****
1408 HC2    19.692263   -9.364930   17.323621 H    184 MOH     0.0372 ****
1409 HC3    18.121293   -9.236332   18.167200 H    184 MOH     0.0372 ****
1410 O1     19.333728  -10.665609   18.876428 O    184 MOH    -0.6497 ****
1411 HO1    18.887437  -10.666017   19.725663 H    184 MOH     0.4215 ****
1412 HC1    28.849616   -3.671091    8.447310 H    185 MOH     0.0372 ****
1413 C1     28.612325   -3.957681    9.472615 C    185 MOH     0.1166 ****
1414 HC2    29.374427   -4.620268    9.882030 H    185 MOH     0.0372 ****
1415 HC3    27.659119   -4.486363    9.453523 H    185 MOH     0.0372 ****
1416 O1     28.510711   -2.831324   10.310536 O    185 MOH    -0.6497 ****
1417 HO1    29.284360   -2.274882   10.191035 H    185 MOH     0.4215 ****
1418 HC1    26.540792  -18.653395   14.799250 H    186 MOH     0.0372 ****
1419 C1     26.133760  -17.652778   14.654293 C    186 MOH     0.1166 ****
1420 HC2    25.088178  -17.698502   14.348823 H    186 MOH     0.0372 ****
1421 HC3    26.690325  -17.195132   13.837585 H    186 MOH     0.0372 ****
1422 O1     26.288490  -16.828933   15.811120 O    186 MOH    -0.6497 ****
1423 HO1    26.571391  -15.948750   15.550905 H    186 MOH     0.4215 ****
1424 HC1    25.946698  -14.247988   17.021687 H    187 MOH     0.0372 ****
1425 C1     26.035033  -13.262068   17.477771 C    187 MOH     0.1166 ****
1426 HC2    25.434011  -13.230225   18.385696 H    187 MOH     0.0372 ****
1427 HC3    25.682849  -12.526813   16.754401 H    187 MOH     0.0372 ****
1428 O1     27.375063  -13.058352   17.785362 O    187 MOH    -0.6497 ****
1429 HO1    27.860037  -13.524980   17.101590 H    187 MOH     0.4215 ****
1430 HC1    24.556439   -4.417369   10.434280 H    188 MOH     0.0372 ****
1431 C1     23.973892   -5.290204   10.729851 C    188 MOH     0.1166 ****
1432 HC2    24.309910   -6.205088   10.242654 H    188 MOH     0.0372 ****
1433 HC3    22.953715   -5.110166   10.392561 H    188 MOH     0.0372 ****
1434 O1     23.966964   -5.437173   12.132751 O    188 MOH    -0.6497 ****
1435 HO1    23.780480   -4.575361   12.513881 H    188 MOH     0.4215 ****
1436 HC1    23.725632   -7.431874   14.705205 H    189 MOH     0.0372 ****
1437 C1     24.757357   -7.715607   14.499437 C    189 MOH     0.1166 ****
1438 HC2    25.028134   -8.541493   15.156339 H    189 MOH     0.0372 ****
1439 HC3    25.405721   -6.864817   14.710155 H    189 MOH     0.0372 ****
1440 O1     24.895343   -8.034857   13.137549 O    189 MOH    -0.6497 ****
1441 HO1    24.598585   -7.242039   12.685001 H    189 MOH     0.4215 ****
1442 HC1    23.016068   -3.677215   15.902337 H    190 MOH     0.0372 ****
1443 C1     22.776468   -4.310000   16.756522 C    190 MOH     0.1166 ****
1444 HC2    21.730887   -4.185484   17.037243 H    190 MOH     0.0372 ****
1445 HC3    23.408666   -4.002589   17.590201 H    190 MOH     0.0372 ****
1446 O1     23.078422   -5.660077   16.440445 O    190 MOH    -0.6497 ****
1447 HO1    22.615965   -5.933195   15.644950 H    190 MOH     0.4215 ****
1448 HC1    20.422611  -11.615603    6.802580 H    191 MOH     0.0372 ****
1449 C1     21.210694  -11.581310    6.050218 C    191 MOH     0.1166 ****
1450 HC2    20.790383  -11.189800    5.123201 H    191 MOH     0.0372 ****
1451 HC3    21.608488  -12.579069    5.863542 H    191 MOH     0.0372 ****
1452 O1     22.217016  -10.681122    6.400236 O    191 MOH    -0.6497 ****
1453 HO1    23.044359  -11.146117    6.256693 H    191 MOH     0.4215 ****
1454 HC1    23.626328  -12.236140    4.084461 H    192 MOH     0.0372 ****
1455 C1     24.056454  -12.806055    4.908948 C    192 MOH     0.1166 ****
1456 HC2    24.831835  -13.449862    4.493876 H    192 MOH     0.0372 ****
1457 HC3    23.311094  -13.454761    5.369274 H    192 MOH     0.0372 ****
1458 O1     24.625721  -11.911583    5.848693 O    192 MOH    -0.6497 ****
1459 HO1    25.040258  -12.450879    6.525394 H    192 MOH     0.4215 ****
1460 HC1    23.777593   -9.075482   17.643941 H    193 MOH     0.0372 ****
1461 C1     22.767808   -8.676215   17.735865 C    193 MOH     0.1166 ****
1462 HC2    22.155239   -9.417594   18.249224 H    193 MOH     0.0372 ****
1463 HC3    22.366549   -8.484338   16.740258 H    193 MOH     0.0372 ****
1464 O1     22.835935   -7.487396   18.498126 O    193 MOH    -0.6497 ****
1465 HO1    23.170221   -6.794190   17.923955 H    193 MOH     0.4215 ****
1466 HC1    19.521367   -1.839281   16.067800 H    194 MOH     0.0372 ****
1467 C1     20.383928   -1.376327   15.588381 C    194 MOH     0.1166 ****
1468 HC2    21.170857   -1.261610   16.334379 H    194 MOH     0.0372 ****
1469 HC3    20.066963   -0.384284   15.265941 H    194 MOH     0.0372 ****
1470 O1     20.766712   -2.163838   14.429433 O    194 MOH    -0.6497 ****
1471 HO1    20.072737   -2.117706   13.768288 H    194 MOH     0.4215 ****
1472 HC1    26.207661   -6.401864   22.328523 H    195 MOH     0.0372 ****
1473 C1     26.815610   -5.531070   22.080329 C    195 MOH     0.1166 ****
1474 HC2    27.865233   -5.800514   21.965777 H    195 MOH     0.0372 ****
1475 HC3    26.759030   -4.808879   22.895623 H    195 MOH     0.0372 ****
1476 O1     26.420703   -4.968912   20.870469 O    195 MOH    -0.6497 ****
1477 HO1    26.702450   -5.567404   20.174676 H    195 MOH     0.4215 ****
1478 HC1    27.680481   -9.407796    1.619487 H    196 MOH     0.0372 ****
1479 C1     28.604242   -9.219594    1.071479 C    196 MOH     0.1166 ****
1480 HC2    29.194871  -10.134478    1.108956 H    196 MOH     0.0372 ****
1481 HC3    29.126744   -8.396157    1.558676 H    196 MOH     0.0372 ****
1482 O1     28.331155   -8.867275   -0.282630 O    196 MOH    -0.6497 ****
1483 HO1    29.112887   -8.445147   -0.646083 H    196 MOH     0.4215 ****
1484 HC1    25.267157  -14.145926   12.530145 H    197 MOH     0.0372 ****
1485 C1     26.123945  -14.403939   11.906476 C    197 MOH     0.1166 ****
1486 HC2    26.309852  -13.610712   11.183106 H    197 MOH     0.0372 ****
1487 HC3    25.877994  -15.307800   11.349276 H    197 MOH     0.0372 ****
1488 O1     27.287306  -14.594591   12.707628 O    197 MOH    -0.6497 ****
1489 HO1    27.983590  -14.942418   12.146186 H    197 MOH     0.4215 ****
1490 HC1    26.402805   -2.466350   13.082395 H    198 MOH     0.0372 ****
1491 C1     26.584093   -3.504526   13.361702 C    198 MOH     0.1166 ****
1492 HC2    25.924759   -4.141801   12.772682 H    198 MOH     0.0372 ****
1493 HC3    26.359504   -3.659252   14.417413 H    198 MOH     0.0372 ****
1494 O1     27.914308   -3.900118   13.120579 O    198 MOH    -0.6497 ****
1495 HO1    28.093864   -3.791933   12.183662 H    198 MOH     0.4215 ****
1496 HC1    22.124062    3.218099   14.411756 H    199 MOH     0.0372 ****
1497 C1     21.216468    3.154412   15.011382 C    199 MOH     0.1166 ****
1498 HC2    20.605631    2.307705   14.698841 H    199 MOH     0.0372 ****
1499 HC3    20.667407    4.086443   14.879153 H    199 MOH     0.0372 ****
1500 O1     21.588281    2.971109   16.335793 O    199 MOH    -0.6497 ****
1501 HO1    22.115402    2.168493   16.334379 H    199 MOH     0.4215 ****
1502 HC1    27.563857  -10.709292    4.115574 H    200 MOH     0.0372 ****
1503 C1     27.843871  -11.617644    4.649440 C    200 MOH     0.1166 ****
1504 HC2    28.652162  -12.113257    4.112038 H    200 MOH     0.0372 ****
1505 HC3    27.013064  -12.323505    4.672774 H    200 MOH     0.0372 ****
1506 O1     28.281503  -11.356365    5.968901 O    200 MOH    -0.6497 ****
1507 HO1    27.933938  -12.061002    6.520444 H    200 MOH     0.4215 ****
1508 HC1    27.672398   -9.175503    9.583631 H    201 MOH     0.0372 ****
1509 C1     27.041932   -9.489037   10.415188 C    201 MOH     0.1166 ****
1510 HC2    26.065633   -9.801756   10.044664 H    201 MOH     0.0372 ****
1511 HC3    26.871613   -8.661926   11.105324 H    201 MOH     0.0372 ****
1512 O1     27.644108  -10.543135   11.110981 O    201 MOH    -0.6497 ****
1513 HO1    26.993434  -10.897494   11.720507 H    201 MOH     0.4215 ****
1514 HC1    26.790784    5.665956   12.775511 H    202 MOH     0.0372 ****
1515 C1     25.883190    6.045627   12.305992 C    202 MOH     0.1166 ****
1516 HC2    26.013671    6.025622   11.223411 H    202 MOH     0.0372 ****
1517 HC3    25.740007    7.076453   12.627725 H    202 MOH     0.0372 ****
1518 O1     24.742923    5.252400   12.680051 O    202 MOH    -0.6497 ****
1519 HO1    23.969851    5.757403   12.417715 H    202 MOH     0.4215 ****
1520 HC1    19.672633  -14.510900   12.780460 H    203 MOH     0.0372 ****
1521 C1     20.316379  -13.726655   12.383773 C    203 MOH     0.1166 ****
1522 HC2    20.350442  -12.925263   13.121286 H    203 MOH     0.0372 ****
1523 HC3    19.917429  -13.286563   11.468777 H    203 MOH     0.0372 ****
1524 O1     21.628118  -14.191241   12.153257 O    203 MOH    -0.6497 ****
1525 HO1    22.070369  -13.404139   11.827988 H    203 MOH     0.4215 ****
1526 HC1    26.442642   -7.370229   16.958754 H    204 MOH     0.0372 ****
1527 C1     26.605455   -7.594357   18.013051 C    204 MOH     0.1166 ****
1528 HC2    27.172990   -8.521081   18.104974 H    204 MOH     0.0372 ****
1529 HC3    25.621650   -7.711933   18.467013 H    204 MOH     0.0372 ****
1530 O1     27.298275   -6.517806   18.604899 O    204 MOH    -0.6497 ****
1531 HO1    28.136588   -6.427175   18.146694 H    204 MOH     0.4215 ****
1532 HC1    26.164937   -7.475149    7.622824 H    205 MOH     0.0372 ****
1533 C1     26.031569   -8.497811    7.269977 C    205 MOH     0.1166 ****
1534 HC2    25.032753   -8.575378    6.841471 H    205 MOH     0.0372 ****
1535 HC3    26.104892   -9.214695    8.087393 H    205 MOH     0.0372 ****
1536 O1     26.951865   -8.775011    6.258107 O    205 MOH    -0.6497 ****
1537 HO1    27.067913   -9.722964    6.166184 H    205 MOH     0.4215 ****
1538 HC1    28.351940  -16.749733    6.580548 H    206 MOH     0.0372 ****
1539 C1     27.615241  -16.403947    7.305333 C    206 MOH     0.1166 ****
1540 HC2    27.344463  -17.211870    7.986276 H    206 MOH     0.0372 ****
1541 HC3    26.706491  -16.104293    6.784902 H    206 MOH     0.0372 ****
1542 O1     28.055182  -15.322497    8.099414 O    206 MOH    -0.6497 ****
1543 HO1    29.002613  -15.391083    8.235178 H    206 MOH     0.4215 ****
1544 HC1    29.300526   -0.194449    6.932687 H    207 MOH     0.0372 ****
1545 C1     28.452976   -0.859077    7.102393 C    207 MOH     0.1166 ****
1546 HC2    27.587528   -0.215269    7.258664 H    207 MOH     0.0372 ****
1547 HC3    28.685648   -1.460835    7.980620 H    207 MOH     0.0372 ****
1548 O1     28.319608   -1.560856    5.886876 O    207 MOH    -0.6497 ****
1549 HO1    29.165426   -1.966654    5.681815 H    207 MOH     0.4215 ****
1550 HC1    27.189156  -19.000406   12.342761 H    208 MOH     0.0372 ****
1551 C1     28.224345  -18.696261   12.186491 C    208 MOH     0.1166 ****
1552 HC2    28.813242  -19.598898   12.018906 H    208 MOH     0.0372 ****
1553 HC3    28.597313  -18.139410   13.044918 H    208 MOH     0.0372 ****
1554 O1     28.222036  -17.964680   11.009865 O    208 MOH    -0.6497 ****
1555 HO1    28.859430  -17.255553   11.119467 H    208 MOH     0.4215 ****
1556 HC1    18.666889   -5.504534   13.031483 H    209 MOH     0.0372 ****
1557 C1     18.500612   -4.434107   13.150277 C    209 MOH     0.1166 ****
1558 HC2    18.853950   -4.113224   14.130327 H    209 MOH     0.0372 ****
1559 HC3    17.433669   -4.221001   13.078152 H    209 MOH     0.0372 ****
1560 O1     19.187659   -3.719673   12.140529 O    209 MOH    -0.6497 ****
1561 HO1    19.097015   -4.249579   11.345741 H    209 MOH     0.4215 ****
1562 HC1    25.330088    0.811475   10.182550 H    210 MOH     0.0372 ****
1563 C1     26.201310    0.156237   10.163458 C    210 MOH     0.1166 ****
1564 HC2    26.200732   -0.415311    9.235734 H    210 MOH     0.0372 ****
1565 HC3    26.173597   -0.552891   10.991480 H    210 MOH     0.0372 ****
1566 O1     27.379682    0.940890   10.236997 O    210 MOH    -0.6497 ****
1567 HO1    27.350237    1.451609   11.049463 H    210 MOH     0.4215 ****
1568 HC1    21.144876   -5.953607   12.707628 H    211 MOH     0.0372 ****
1569 C1     21.412189   -6.958306   13.036433 C    211 MOH     0.1166 ****
1570 HC2    22.356734   -7.247754   12.576106 H    211 MOH     0.0372 ****
1571 HC3    20.649510   -7.671924   12.726720 H    211 MOH     0.0372 ****
1572 O1     21.579621   -6.950550   14.465496 O    211 MOH    -0.6497 ****
1573 HO1    20.751123   -6.762755   14.912387 H    211 MOH     0.4215 ****
1574 HC1    24.026431    0.123985   14.784401 H    212 MOH     0.0372 ****
1575 C1     23.655772   -0.272832   15.729096 C    212 MOH     0.1166 ****
1576 HC2    24.510251   -0.395715   16.394483 H    212 MOH     0.0372 ****
1577 HC3    23.184077   -1.248546   15.613130 H    212 MOH     0.0372 ****
1578 O1     22.800717    0.662465   16.291245 O    212 MOH    -0.6497 ****
1579 HO1    22.985469    0.664098   17.233112 H    212 MOH     0.4215 ****
1580 HC1    22.564003  -17.289029    5.271694 H    213 MOH     0.0372 ****
1581 C1     23.077845  -16.979985    6.181740 C    213 MOH     0.1166 ****
1582 HC2    24.160954  -17.006113    6.065774 H    213 MOH     0.0372 ****
1583 HC3    22.774736  -17.619302    7.011883 H    213 MOH     0.0372 ****
1584 O1     22.638481  -15.722581    6.464583 O    213 MOH    -0.6497 ****
1585 HO1    22.306505  -15.360464    5.639389 H    213 MOH     0.4215 ****
1586 HC1    23.314558   -4.550866   20.522572 H    214 MOH     0.0372 ****
1587 C1     23.248163   -4.811328   21.578990 C    214 MOH     0.1166 ****
1588 HC2    23.356128   -5.889512   21.702734 H    214 MOH     0.0372 ****
1589 HC3    22.264358   -4.496569   21.927594 H    214 MOH     0.0372 ****
1590 O1     24.231968   -4.092403   22.302360 O    214 MOH    -0.6497 ****
1591 HO1    25.054692   -4.201405   21.819406 H    214 MOH     0.4215 ****
1592 HC1    24.024122    1.537749   11.709194 H    215 MOH     0.0372 ****
1593 C1     24.590503    1.842710   12.589541 C    215 MOH     0.1166 ****
1594 HC2    24.976173    0.949055   13.080981 H    215 MOH     0.0372 ****
1595 HC3    23.936365    2.366493   13.286042 H    215 MOH     0.0372 ****
1596 O1     25.685159    2.657166   12.184369 O    215 MOH    -0.6497 ****
1597 HO1    25.334130    3.532450   12.007593 H    215 MOH     0.4215 ****
1598 HC1    15.940641   -7.867067   11.106031 H    216 MOH     0.0372 ****
1599 C1     16.499516   -7.234690   11.795461 C    216 MOH     0.1166 ****
1600 HC2    16.544549   -6.234074   11.364833 H    216 MOH     0.0372 ****
1601 HC3    17.512766   -7.629058   11.876071 H    216 MOH     0.0372 ****
1602 O1     15.834408   -7.222443   13.083809 O    216 MOH    -0.6497 ****
1603 HO1    16.301485   -7.840531   13.649495 H    216 MOH     0.4215 ****
1604 HC1    24.415565  -14.080198    9.005217 H    217 MOH     0.0372 ****
1605 C1     23.533374  -13.496811    9.266140 C    217 MOH     0.1166 ****
1606 HC2    23.837638  -12.498236    9.577267 H    217 MOH     0.0372 ****
1607 HC3    22.998171  -13.986709   10.079313 H    217 MOH     0.0372 ****
1608 O1     22.712382  -13.441697    8.098706 O    217 MOH    -0.6497 ****
1609 HO1    22.621738  -14.330454    7.745860 H    217 MOH     0.4215 ****
1610 HC1    26.145884  -12.217361   14.071637 H    218 MOH     0.0372 ****
1611 C1     25.834115  -11.173878   14.036282 C    218 MOH     0.1166 ****
1612 HC2    26.640096  -10.516598   14.364380 H    218 MOH     0.0372 ****
1613 HC3    24.991184  -11.050587   14.715105 H    218 MOH     0.0372 ****
1614 O1     25.380895  -10.827684   12.742277 O    218 MOH    -0.6497 ****
1615 HO1    25.169585   -9.891978   12.771975 H    218 MOH     0.4215 ****
1616 HC1    21.871183  -13.046513   14.888346 H    219 MOH     0.0372 ****
1617 C1     22.642523  -13.339635   15.601109 C    219 MOH     0.1166 ****
1618 HC2    23.540302  -13.596015   15.038252 H    219 MOH     0.0372 ****
1619 HC3    22.312278  -14.227984   16.139925 H    219 MOH     0.0372 ****
1620 O1     22.902908  -12.262268   16.509742 O    219 MOH    -0.6497 ****
1621 HO1    22.236645  -12.287171   17.200585 H    219 MOH     0.4215 ****
1622 HC1    21.741856  -12.435774   20.771474 H    220 MOH     0.0372 ****
1623 C1     22.225098  -12.586417   19.806273 C    220 MOH     0.1166 ****
1624 HC2    22.680628  -13.576011   19.786474 H    220 MOH     0.0372 ****
1625 HC3    22.985469  -11.817277   19.667680 H    220 MOH     0.0372 ****
1626 O1     21.193951  -12.537019   18.819859 O    220 MOH    -0.6497 ****
1627 HO1    20.681264  -11.736036   18.949967 H    220 MOH     0.4215 ****
1628 HC1    17.441751  -11.008129   14.437919 H    221 MOH     0.0372 ****
1629 C1     18.029494  -10.092428   14.499437 C    221 MOH     0.1166 ****
1630 HC2    18.495416   -9.881772   13.536357 H    221 MOH     0.0372 ****
1631 HC3    18.818155  -10.241031   15.236242 H    221 MOH     0.0372 ****
1632 O1     17.247762   -8.967704   14.874911 O    221 MOH    -0.6497 ****
1633 HO1    16.847658   -9.131820   15.731924 H    221 MOH     0.4215 ****
1634 HC1    27.010062    9.271850   16.216999 H    222 MOH     0.0372 ****
1635 C1     26.575317    8.386359   16.680154 C    222 MOH     0.1166 ****
1636 HC2    26.163089    7.711525   15.929914 H    222 MOH     0.0372 ****
1637 HC3    25.753170    8.672541   17.337056 H    222 MOH     0.0372 ****
1638 O1     27.480602    7.683764   17.475649 O    222 MOH    -0.6497 ****
1639 HO1    26.954059    6.966063   17.836274 H    222 MOH     0.4215 ****
1640 HC1    27.538915    8.535370   11.106031 H    223 MOH     0.0372 ****
1641 C1     28.097790    9.167746   11.795461 C    223 MOH     0.1166 ****
1642 HC2    28.142823   10.168363   11.364833 H    223 MOH     0.0372 ****
1643 HC3    29.111040    8.773378   11.876071 H    223 MOH     0.0372 ****
1644 O1     27.432682    9.179994   13.083809 O    223 MOH    -0.6497 ****
1645 HO1    27.899759    8.561906   13.649495 H    223 MOH     0.4215 ****
1646 HC1    25.941502  -21.921994    2.514826 H    224 MOH     0.0372 ****
1647 C1     25.487128  -21.623973    1.570131 C    224 MOH     0.1166 ****
1648 HC2    24.406328  -21.758695    1.618214 H    224 MOH     0.0372 ****
1649 HC3    25.909748  -22.248593    0.782414 H    224 MOH     0.0372 ****
1650 O1     25.768875  -20.266547    1.310623 O    224 MOH    -0.6497 ****
1651 HO1    25.499252  -20.072221    0.409769 H    224 MOH     0.4215 ****
1652 HC1    26.982465  -19.008326    5.638116 H    225 MOH     0.0372 ****
1653 C1     26.640673  -19.677853    4.848985 C    225 MOH     0.1166 ****
1654 HC2    26.142420  -20.553954    5.264764 H    225 MOH     0.0372 ****
1655 HC3    27.513050  -19.995879    4.278350 H    225 MOH     0.0372 ****
1656 O1     25.859519  -18.947905    3.926918 O    225 MOH    -0.6497 ****
1657 HO1    25.886654  -19.434946    3.100310 H    225 MOH     0.4215 ****
1658 HC1    22.124062  -21.385556    0.206829 H    226 MOH     0.0372 ****
1659 C1     21.216468  -21.449243    0.806456 C    226 MOH     0.1166 ****
1660 HC2    20.605631  -22.295950    0.493914 H    226 MOH     0.0372 ****
1661 HC3    20.667408  -20.517212    0.674227 H    226 MOH     0.0372 ****
1662 O1     21.588281  -21.632546    2.130867 O    226 MOH    -0.6497 ****
1663 HO1    22.115402  -22.435162    2.129452 H    226 MOH     0.4215 ****
1664 HC1    26.790785  -18.937699   -1.429416 H    227 MOH     0.0372 ****
1665 C1     25.883190  -18.558028   -1.898935 C    227 MOH     0.1166 ****
1666 HC2    26.013671  -18.578032   -2.981515 H    227 MOH     0.0372 ****
1667 HC3    25.740007  -17.527201   -1.577201 H    227 MOH     0.0372 ****
1668 O1     24.742923  -19.351255   -1.524875 O    227 MOH    -0.6497 ****
1669 HO1    23.969851  -18.846252   -1.787212 H    227 MOH     0.4215 ****
1670 HC1    27.010062  -15.331805    2.012073 H    228 MOH     0.0372 ****
1671 C1     26.575317  -16.217296    2.475228 C    228 MOH     0.1166 ****
1672 HC2    26.163089  -16.892130    1.724987 H    228 MOH     0.0372 ****
1673 HC3    25.753171  -15.931114    3.132130 H    228 MOH     0.0372 ****
1674 O1     27.480603  -16.919891    3.270723 O    228 MOH    -0.6497 ****
1675 HO1    26.954059  -17.637592    3.631347 H    228 MOH     0.4215 ****
1676 HC1    27.538915  -16.068285   -3.098895 H    229 MOH     0.0372 ****
1677 C1     28.097790  -15.435909   -2.409466 C    229 MOH     0.1166 ****
1678 HC2    28.142823  -14.435292   -2.840094 H    229 MOH     0.0372 ****
1679 HC3    29.111040  -15.830277   -2.328856 H    229 MOH     0.0372 ****
1680 O1     27.432683  -15.423661   -1.121117 O    229 MOH    -0.6497 ****
1681 HO1    27.899759  -16.041749   -0.555432 H    229 MOH     0.4215 ****
1682 HC1   -25.062775  -10.231151   17.552582 H    230 MOH     0.0372 ****
1683 C1    -24.525262   -9.888631   16.667992 C    230 MOH     0.1166 ****
1684 HC2   -24.853197  -10.462628   15.801079 H    230 MOH     0.0372 ****
1685 HC3   -23.465825  -10.073159   16.846183 H    230 MOH     0.0372 ****
1686 O1    -24.785647   -8.507935   16.399291 O    230 MOH    -0.6497 ****
1687 HO1   -24.526417   -8.302994   15.498437 H    230 MOH     0.4215 ****
1688 HC1    -9.048349    1.586249   29.281362 H    231 MOH     0.0372 ****
1689 C1     -8.614759    1.779350   30.262120 C    231 MOH     0.1166 ****
1690 HC2    -8.328971    2.830181   30.313031 H    231 MOH     0.0372 ****
1691 HC3    -7.726794    1.160038   30.388692 H    231 MOH     0.0372 ****
1692 O1     -9.569119    1.464591   31.269747 O    231 MOH    -0.6497 ****
1693 HO1    -9.368201    0.572977   31.562489 H    231 MOH     0.4215 ****
1694 HC1   -15.685568   -9.267440   21.648852 H    232 MOH     0.0372 ****
1695 C1    -15.872629  -10.253360   22.073823 C    232 MOH     0.1166 ****
1696 HC2   -16.264650  -10.158646   23.086400 H    232 MOH     0.0372 ****
1697 HC3   -14.915383  -10.769794   22.142412 H    232 MOH     0.0372 ****
1698 O1    -16.713829  -11.057201   21.224588 O    232 MOH    -0.6497 ****
1699 HO1   -17.429743  -11.403395   21.761989 H    232 MOH     0.4215 ****
1700 HC1    -4.978607   -0.025107   24.666077 H    233 MOH     0.0372 ****
1701 C1     -5.173174    0.716272   25.441066 C    233 MOH     0.1166 ****
1702 HC2    -6.237231    0.758321   25.673704 H    233 MOH     0.0372 ****
1703 HC3    -4.871797    1.704641   25.093876 H    233 MOH     0.0372 ****
1704 O1     -4.503448    0.385999   26.652339 O    233 MOH    -0.6497 ****
1705 HO1    -4.721109   -0.508473   26.924576 H    233 MOH     0.4215 ****
1706 HC1   -14.160786   -1.719746   18.671932 H    234 MOH     0.0372 ****
1707 C1    -14.952910   -2.252102   19.198020 C    234 MOH     0.1166 ****
1708 HC2   -14.925775   -1.994497   20.256559 H    234 MOH     0.0372 ****
1709 HC3   -14.787211   -3.319671   19.055891 H    234 MOH     0.0372 ****
1710 O1    -16.181512   -1.836505   18.642234 O    234 MOH    -0.6497 ****
1711 HO1   -16.876064   -2.195355   19.200141 H    234 MOH     0.4215 ****
1712 HC1   -13.464501    6.171285   17.552582 H    235 MOH     0.0372 ****
1713 C1    -12.926988    6.513806   16.667992 C    235 MOH     0.1166 ****
1714 HC2   -13.254923    5.939809   15.801079 H    235 MOH     0.0372 ****
1715 HC3   -11.867550    6.329277   16.846183 H    235 MOH     0.0372 ****
1716 O1    -13.187373    7.894501   16.399291 O    235 MOH    -0.6497 ****
1717 HO1   -12.928143    8.099442   15.498437 H    235 MOH     0.4215 ****
1718 HC1   -10.095663    4.339067   26.194841 H    236 MOH     0.0372 ****
1719 C1    -10.047165    3.251494   26.143930 C    236 MOH     0.1166 ****
1720 HC2   -10.425330    2.896726   25.185800 H    236 MOH     0.0372 ****
1721 HC3   -10.653960    2.804870   26.931647 H    236 MOH     0.0372 ****
1722 O1     -8.710599    2.817118   26.217469 O    236 MOH    -0.6497 ****
1723 HO1    -8.742931    1.857734   26.238682 H    236 MOH     0.4215 ****
1724 HC1   -19.005909    3.314364   20.621426 H    237 MOH     0.0372 ****
1725 C1    -18.960298    2.859575   19.631476 C    237 MOH     0.1166 ****
1726 HC2   -18.042889    2.280679   19.522582 H    237 MOH     0.0372 ****
1727 HC3   -18.970691    3.637288   18.868508 H    237 MOH     0.0372 ****
1728 O1    -20.063615    2.023075   19.414394 O    237 MOH    -0.6497 ****
1729 HO1   -19.804385    1.135543   19.671781 H    237 MOH     0.4215 ****
1730 HC1   -12.057499   -6.709765   24.128675 H    238 MOH     0.0372 ****
1731 C1    -12.010156   -5.986349   24.943262 C    238 MOH     0.1166 ****
1732 HC2   -12.803435   -5.258850   24.772142 H    238 MOH     0.0372 ****
1733 HC3   -11.049445   -5.472772   24.896593 H    238 MOH     0.0372 ****
1734 O1    -12.195485   -6.628115   26.237268 O    238 MOH    -0.6497 ****
1735 HO1   -12.387166   -5.952464   26.892756 H    238 MOH     0.4215 ****
1736 HC1    -5.299614    2.004703   28.447684 H    239 MOH     0.0372 ****
1737 C1     -5.217053    2.944491   28.993570 C    239 MOH     0.1166 ****
1738 HC2    -6.043818    3.600138   28.720627 H    239 MOH     0.0372 ****
1739 HC3    -4.259806    3.406628   28.748911 H    239 MOH     0.0372 ****
1740 O1     -5.258045    2.586457   30.334952 O    239 MOH    -0.6497 ****
1741 HO1    -5.034033    3.329469   30.899223 H    239 MOH     0.4215 ****
1742 HC1   -25.068664   -0.757505   23.093471 H    240 MOH     0.0372 ****
1743 C1    -25.609064    0.112064   22.720118 C    240 MOH     0.1166 ****
1744 HC2   -26.052469   -0.217392   21.780374 H    240 MOH     0.0372 ****
1745 HC3   -24.886222    0.915089   22.573747 H    240 MOH     0.0372 ****
1746 O1    -26.600375    0.450502   23.713603 O    240 MOH    -0.6497 ****
1747 HO1   -27.236037   -0.263524   23.796335 H    240 MOH     0.4215 ****
1748 HC1   -26.625201   -7.529527   18.784362 H    241 MOH     0.0372 ****
1749 C1    -26.212395   -6.521970   18.747593 C    241 MOH     0.1166 ****
1750 HC2   -26.297843   -6.051260   19.726935 H    241 MOH     0.0372 ****
1751 HC3   -26.789168   -5.934093   18.033415 H    241 MOH     0.0372 ****
1752 O1    -24.872943   -6.577492   18.316257 O    241 MOH    -0.6497 ****
1753 HO1   -24.839456   -7.238038   17.620464 H    241 MOH     0.4215 ****
1754 HC1   -13.880771    5.126986   31.007410 H    242 MOH     0.0372 ****
1755 C1    -13.398106    4.161071   30.860332 C    242 MOH     0.1166 ****
1756 HC2   -14.171178    3.407036   30.712546 H    242 MOH     0.0372 ****
1757 HC3   -12.833458    3.918571   31.759772 H    242 MOH     0.0372 ****
1758 O1    -12.489934    4.188832   29.737446 O    242 MOH    -0.6497 ****
1759 HO1   -11.778639    4.793039   29.966549 H    242 MOH     0.4215 ****
1760 HC1   -19.187775   -3.115547   22.348180 H    243 MOH     0.0372 ****
1761 C1    -19.348855   -4.128411   22.716583 C    243 MOH     0.1166 ****
1762 HC2   -20.099988   -4.083503   23.504300 H    243 MOH     0.0372 ****
1763 HC3   -18.423940   -4.528902   23.131655 H    243 MOH     0.0372 ****
1764 O1    -19.800343   -4.975118   21.660165 O    243 MOH    -0.6497 ****
1765 HO1   -19.395621   -5.833256   21.810072 H    243 MOH     0.4215 ****
1766 HC1   -15.386500    9.928394   22.135341 H    244 MOH     0.0372 ****
1767 C1    -15.967315   10.309698   22.975384 C    244 MOH     0.1166 ****
1768 HC2   -15.669979   11.316847   23.267419 H    244 MOH     0.0372 ****
1769 HC3   -15.759469    9.654460   23.821791 H    244 MOH     0.0372 ****
1770 O1    -17.346605   10.266016   22.690420 O    244 MOH    -0.6497 ****
1771 HO1   -17.751904    9.591181   23.239842 H    244 MOH     0.4215 ****
1772 HC1   -16.454021    0.930602   27.912404 H    245 MOH     0.0372 ****
1773 C1    -17.517500    1.131460   27.780882 C    245 MOH     0.1166 ****
1774 HC2   -18.099469    0.210452   27.807752 H    245 MOH     0.0372 ****
1775 HC3   -17.682622    1.602171   26.811438 H    245 MOH     0.0372 ****
1776 O1    -17.967833    2.021850   28.760225 O    245 MOH    -0.6497 ****
1777 HO1   -17.857560    2.916322   28.430006 H    245 MOH     0.4215 ****
1778 HC1   -12.741081    3.858151   25.115796 H    246 MOH     0.0372 ****
1779 C1    -13.145227    4.203937   24.164738 C    246 MOH     0.1166 ****
1780 HC2   -14.078225    3.680563   23.952606 H    246 MOH     0.0372 ****
1781 HC3   -12.424116    4.059009   23.360757 H    246 MOH     0.0372 ****
1782 O1    -13.391755    5.569936   24.318887 O    246 MOH    -0.6497 ****
1783 HO1   -12.567299    6.025541   24.506977 H    246 MOH     0.4215 ****
1784 HC1   -17.543481    4.530127   22.652236 H    247 MOH     0.0372 ****
1785 C1    -17.780772    4.243537   23.677541 C    247 MOH     0.1166 ****
1786 HC2   -17.018670    3.580950   24.086956 H    247 MOH     0.0372 ****
1787 HC3   -18.733977    3.714855   23.658449 H    247 MOH     0.0372 ****
1788 O1    -17.882386    5.369894   24.515463 O    247 MOH    -0.6497 ****
1789 HO1   -17.108736    5.926336   24.395962 H    247 MOH     0.4215 ****
1790 HC1   -10.501540    5.745482   23.449146 H    248 MOH     0.0372 ****
1791 C1    -10.081229    6.628932   23.929978 C    248 MOH     0.1166 ****
1792 HC2    -9.827772    7.370719   23.172667 H    248 MOH     0.0372 ****
1793 HC3    -9.194419    6.346016   24.496371 H    248 MOH     0.0372 ****
1794 O1    -11.086396    7.125362   24.753051 O    248 MOH    -0.6497 ****
1795 HO1   -10.730170    7.321729   25.622085 H    248 MOH     0.4215 ****
1796 HC1   -21.836658    3.783849   24.639206 H    249 MOH     0.0372 ****
1797 C1    -22.419204    2.911015   24.934777 C    249 MOH     0.1166 ****
1798 HC2   -22.083186    1.996130   24.447580 H    249 MOH     0.0372 ****
1799 HC3   -23.439382    3.091052   24.597487 H    249 MOH     0.0372 ****
1800 O1    -22.426132    2.764045   26.337677 O    249 MOH    -0.6497 ****
1801 HO1   -22.612616    3.625857   26.718807 H    249 MOH     0.4215 ****
1802 HC1   -17.173399    0.041846   23.223579 H    250 MOH     0.0372 ****
1803 C1    -17.158966    0.749340   22.394142 C    250 MOH     0.1166 ****
1804 HC2   -18.149699    1.180450   22.252721 H    250 MOH     0.0372 ****
1805 HC3   -16.820061    0.256176   21.483389 H    250 MOH     0.0372 ****
1806 O1    -16.281971    1.800987   22.701027 O    250 MOH    -0.6497 ****
1807 HO1   -16.085672    1.807928   23.640772 H    250 MOH     0.4215 ****
1808 HC1   -25.970485   -3.414384   21.007506 H    251 MOH     0.0372 ****
1809 C1    -25.182402   -3.380092   20.255144 C    251 MOH     0.1166 ****
1810 HC2   -25.602713   -2.988581   19.328127 H    251 MOH     0.0372 ****
1811 HC3   -24.784608   -4.377850   20.068468 H    251 MOH     0.0372 ****
1812 O1    -24.176081   -2.479904   20.605162 O    251 MOH    -0.6497 ****
1813 HO1   -23.348738   -2.944899   20.461619 H    251 MOH     0.4215 ****
1814 HC1   -22.766769   -4.034922   18.289387 H    252 MOH     0.0372 ****
1815 C1    -22.336643   -4.604836   19.113874 C    252 MOH     0.1166 ****
1816 HC2   -21.561261   -5.248644   18.698802 H    252 MOH     0.0372 ****
1817 HC3   -23.082002   -5.253543   19.574200 H    252 MOH     0.0372 ****
1818 O1    -21.767376   -3.710364   20.053619 O    252 MOH    -0.6497 ****
1819 HO1   -21.352838   -4.249660   20.730320 H    252 MOH     0.4215 ****
1820 HC1   -12.419497    4.680363   20.574757 H    253 MOH     0.0372 ****
1821 C1    -11.675870    4.159438   19.972302 C    253 MOH     0.1166 ****
1822 HC2   -10.760193    4.748948   19.924218 H    253 MOH     0.0372 ****
1823 HC3   -12.011888    4.038188   18.942047 H    253 MOH     0.0372 ****
1824 O1    -11.337543    2.930610   20.556372 O    253 MOH    -0.6497 ****
1825 HO1   -12.041333    2.659125   21.149634 H    253 MOH     0.4215 ****
1826 HC1   -11.703583   -0.996738   25.234590 H    254 MOH     0.0372 ****
1827 C1    -11.742843   -2.066349   25.029529 C    254 MOH     0.1166 ****
1828 HC2   -12.521111   -2.494601   25.660976 H    254 MOH     0.0372 ****
1829 HC3   -10.774049   -2.502766   25.273481 H    254 MOH     0.0372 ****
1830 O1    -12.031518   -2.358246   23.661278 O    254 MOH    -0.6497 ****
1831 HO1   -11.601969   -3.172701   23.389042 H    254 MOH     0.4215 ****
1832 HC1   -12.668913   -0.172077   22.606981 H    255 MOH     0.0372 ****
1833 C1    -13.605952    0.083895   22.114128 C    255 MOH     0.1166 ****
1834 HC2   -14.444265   -0.248011   22.727190 H    255 MOH     0.0372 ****
1835 HC3   -13.624427   -0.414984   21.145392 H    255 MOH     0.0372 ****
1836 O1    -13.636552    1.467449   21.897046 O    255 MOH    -0.6497 ****
1837 HO1   -14.552807    1.708723   21.745018 H    255 MOH     0.4215 ****
1838 HC1   -15.998492   -4.882037   20.899319 H    256 MOH     0.0372 ****
1839 C1    -15.693073   -5.862241   20.532330 C    256 MOH     0.1166 ****
1840 HC2   -14.743909   -5.782633   20.002707 H    256 MOH     0.0372 ****
1841 HC3   -16.459794   -6.254568   19.865529 H    256 MOH     0.0372 ****
1842 O1    -15.539498   -6.782841   21.606425 O    256 MOH    -0.6497 ****
1843 HO1   -14.690216   -7.216809   21.498238 H    256 MOH     0.4215 ****
1844 HC1   -10.157439   -7.530344   27.572285 H    257 MOH     0.0372 ****
1845 C1     -9.286217   -7.026974   27.152971 C    257 MOH     0.1166 ****
1846 HC2    -9.584130   -6.077796   26.709615 H    257 MOH     0.0372 ****
1847 HC3    -8.847431   -7.638529   26.363840 H    257 MOH     0.0372 ****
1848 O1     -8.317424   -6.751814   28.138678 O    257 MOH    -0.6497 ****
1849 HO1    -7.887298   -7.589948   28.321819 H    257 MOH     0.4215 ****
1850 HC1   -18.712615   -1.206578   15.824413 H    258 MOH     0.0372 ****
1851 C1    -17.788855   -1.018375   15.276405 C    258 MOH     0.1166 ****
1852 HC2   -17.198225   -1.933260   15.313882 H    258 MOH     0.0372 ****
1853 HC3   -17.266353   -0.194938   15.763602 H    258 MOH     0.0372 ****
1854 O1    -18.061941   -0.666057   13.922296 O    258 MOH    -0.6497 ****
1855 HO1   -17.280209   -0.243928   13.558843 H    258 MOH     0.4215 ****
1856 HC1   -14.604768    8.049228   25.845530 H    259 MOH     0.0372 ****
1857 C1    -15.619750    7.665882   25.741586 C    259 MOH     0.1166 ****
1858 HC2   -16.340860    8.483196   25.762799 H    259 MOH     0.0372 ****
1859 HC3   -15.854731    6.971044   26.547688 H    259 MOH     0.0372 ****
1860 O1    -15.747344    6.953897   24.559303 O    259 MOH    -0.6497 ****
1861 HO1   -15.026811    6.320704   24.527483 H    259 MOH     0.4215 ****
1862 HC1   -15.746767    5.413985   21.624810 H    260 MOH     0.0372 ****
1863 C1    -15.153828    5.075547   20.775575 C    260 MOH     0.1166 ****
1864 HC2   -14.786633    4.079829   21.023769 H    260 MOH     0.0372 ****
1865 HC3   -14.306855    5.745482   20.623547 H    260 MOH     0.0372 ****
1866 O1    -15.958077    5.024516   19.605313 O    260 MOH    -0.6497 ****
1867 HO1   -15.551045    4.374176   19.027607 H    260 MOH     0.4215 ****
1868 HC1   -19.990291    5.734868   27.287321 H    261 MOH     0.0372 ****
1869 C1    -19.809003    4.696693   27.566628 C    261 MOH     0.1166 ****
1870 HC2   -20.468337    4.059417   26.977608 H    261 MOH     0.0372 ****
1871 HC3   -20.033593    4.541967   28.622339 H    261 MOH     0.0372 ****
1872 O1    -18.478788    4.301100   27.325505 O    261 MOH    -0.6497 ****
1873 HO1   -18.299233    4.409286   26.388588 H    261 MOH     0.4215 ****
1874 HC1   -16.732304   -2.652185   23.593395 H    262 MOH     0.0372 ****
1875 C1    -15.805079   -2.828956   24.137161 C    262 MOH     0.1166 ****
1876 HC2   -15.870897   -3.753639   24.710624 H    262 MOH     0.0372 ****
1877 HC3   -15.581645   -1.992456   24.799720 H    262 MOH     0.0372 ****
1878 O1    -14.801645   -2.931018   23.206608 O    262 MOH    -0.6497 ****
1879 HO1   -13.991622   -2.590131   23.593395 H    262 MOH     0.4215 ****
1880 HC1   -18.829240   -2.508073   18.320500 H    263 MOH     0.0372 ****
1881 C1    -18.549225   -3.416426   18.854366 C    263 MOH     0.1166 ****
1882 HC2   -17.740935   -3.912039   18.316965 H    263 MOH     0.0372 ****
1883 HC3   -19.380032   -4.122287   18.877700 H    263 MOH     0.0372 ****
1884 O1    -18.111594   -3.155147   20.173827 O    263 MOH    -0.6497 ****
1885 HO1   -18.459158   -3.859783   20.725370 H    263 MOH     0.4215 ****
1886 HC1    -7.885566   -0.209635   27.746234 H    264 MOH     0.0372 ****
1887 C1     -8.895351   -0.530518   27.490261 C    264 MOH     0.1166 ****
1888 HC2    -9.592790   -0.099817   28.209389 H    264 MOH     0.0372 ****
1889 HC3    -8.976758   -1.616867   27.524909 H    264 MOH     0.0372 ****
1890 O1     -9.250422   -0.071239   26.218176 O    264 MOH    -0.6497 ****
1891 HO1    -8.651709   -0.478671   25.588851 H    264 MOH     0.4215 ****
1892 HC1   -12.082325    6.898784   29.020440 H    265 MOH     0.0372 ****
1893 C1    -12.574805    7.335201   28.151406 C    265 MOH     0.1166 ****
1894 HC2   -13.517040    7.822650   28.401722 H    265 MOH     0.0372 ****
1895 HC3   -12.827107    6.500742   27.496625 H    265 MOH     0.0372 ****
1896 O1    -11.737069    8.260292   27.451370 O    265 MOH    -0.6497 ****
1897 HO1   -12.278047    8.960030   27.079432 H    265 MOH     0.4215 ****
1898 HC1    -5.741287   -4.501141   26.681331 H    266 MOH     0.0372 ****
1899 C1     -6.647149   -4.176584   26.170093 C    266 MOH     0.1166 ****
1900 HC2    -7.532805   -4.569319   26.669310 H    266 MOH     0.0372 ****
1901 HC3    -6.639644   -4.524820   25.137010 H    266 MOH     0.0372 ****
1902 O1     -6.740103   -2.784457   26.184235 O    266 MOH    -0.6497 ****
1903 HO1    -6.469903   -2.499092   27.060340 H    266 MOH     0.4215 ****
1904 HC1    -9.427091    6.261917   32.769520 H    267 MOH     0.0372 ****
1905 C1     -9.766573    5.516047   32.050393 C    267 MOH     0.1166 ****
1906 HC2   -10.272909    4.678730   32.531932 H    267 MOH     0.0372 ****
1907 HC3    -8.879763    5.119230   31.555418 H    267 MOH     0.0372 ****
1908 O1    -10.607772    6.136584   31.095798 O    267 MOH    -0.6497 ****
1909 HO1   -10.078342    6.821625   30.680020 H    267 MOH     0.4215 ****
1910 HC1   -18.720698   -0.974284   23.788557 H    268 MOH     0.0372 ****
1911 C1    -19.351165   -1.287819   24.620114 C    268 MOH     0.1166 ****
1912 HC2   -20.327464   -1.600537   24.249590 H    268 MOH     0.0372 ****
1913 HC3   -19.521483   -0.460708   25.310251 H    268 MOH     0.0372 ****
1914 O1    -18.748988   -2.341916   25.315908 O    268 MOH    -0.6497 ****
1915 HO1   -19.399662   -2.696276   25.925434 H    268 MOH     0.4215 ****
1916 HC1   -16.058536    3.758130   26.932354 H    269 MOH     0.0372 ****
1917 C1    -15.402089    4.033697   27.757547 C    269 MOH     0.1166 ****
1918 HC2   -15.948840    3.997772   28.700828 H    269 MOH     0.0372 ****
1919 HC3   -15.055679    5.056359   27.606933 H    269 MOH     0.0372 ****
1920 O1    -14.283184    3.161679   27.822601 O    269 MOH    -0.6497 ****
1921 HO1   -13.678121    3.488278   28.492938 H    269 MOH     0.4215 ****
1922 HC1   -20.228160    0.726070   21.827750 H    270 MOH     0.0372 ****
1923 C1    -20.361528   -0.296592   21.474903 C    270 MOH     0.1166 ****
1924 HC2   -21.360344   -0.374159   21.046397 H    270 MOH     0.0372 ****
1925 HC3   -20.288204   -1.013476   22.292319 H    270 MOH     0.0372 ****
1926 O1    -19.441231   -0.573793   20.463034 O    270 MOH    -0.6497 ****
1927 HO1   -19.325184   -1.521745   20.371110 H    270 MOH     0.4215 ****
1928 HC1   -18.041157   -8.548515   20.785474 H    271 MOH     0.0372 ****
1929 C1    -18.777856   -8.202729   21.510259 C    271 MOH     0.1166 ****
1930 HC2   -19.048633   -9.010652   22.191203 H    271 MOH     0.0372 ****
1931 HC3   -19.686605   -7.903074   20.989828 H    271 MOH     0.0372 ****
1932 O1    -18.337915   -7.121279   22.304340 O    271 MOH    -0.6497 ****
1933 HO1   -17.390483   -7.189865   22.440104 H    271 MOH     0.4215 ****
1934 HC1   -17.092570    8.006770   21.137614 H    272 MOH     0.0372 ****
1935 C1    -17.940121    7.342142   21.307319 C    272 MOH     0.1166 ****
1936 HC2   -18.805569    7.985949   21.463590 H    272 MOH     0.0372 ****
1937 HC3   -17.707448    6.740384   22.185546 H    272 MOH     0.0372 ****
1938 O1    -18.073488    6.640363   20.091803 O    272 MOH    -0.6497 ****
1939 HO1   -17.227670    6.234564   19.886742 H    272 MOH     0.4215 ****
1940 HC1   -21.063008    9.012694   24.387476 H    273 MOH     0.0372 ****
1941 C1    -20.191787    8.357455   24.368384 C    273 MOH     0.1166 ****
1942 HC2   -20.192364    7.785907   23.440660 H    273 MOH     0.0372 ****
1943 HC3   -20.219499    7.648328   25.196406 H    273 MOH     0.0372 ****
1944 O1    -19.013415    9.142108   24.441923 O    273 MOH    -0.6497 ****
1945 HO1   -19.042860    9.652827   25.254389 H    273 MOH     0.4215 ****
1946 HC1    -6.249355   -0.150439   29.854119 H    274 MOH     0.0372 ****
1947 C1     -5.609074   -1.025724   29.963013 C    274 MOH     0.1166 ****
1948 HC2    -5.759185   -1.426623   30.965691 H    274 MOH     0.0372 ****
1949 HC3    -4.570420   -0.713005   29.856947 H    274 MOH     0.0372 ****
1950 O1     -5.988393   -1.967552   28.959629 O    274 MOH    -0.6497 ****
1951 HO1    -6.059407   -2.840796   29.352073 H    274 MOH     0.4215 ****
1952 HC1    -7.314566    3.384174   24.342929 H    275 MOH     0.0372 ****
1953 C1     -7.761435    3.798138   23.439246 C    275 MOH     0.1166 ****
1954 HC2    -8.789119    4.116980   23.611073 H    275 MOH     0.0372 ****
1955 HC3    -7.730836    3.025732   22.669914 H    275 MOH     0.0372 ****
1956 O1     -6.950836    4.862441   23.051045 O    275 MOH    -0.6497 ****
1957 HO1    -6.768970    5.408678   23.818963 H    275 MOH     0.4215 ****
1958 HC1   -14.088617    1.131869   18.937097 H    276 MOH     0.0372 ****
1959 C1    -15.012955    1.647078   18.675468 C    276 MOH     0.1166 ****
1960 HC2   -15.725982    1.600129   19.499247 H    276 MOH     0.0372 ****
1961 HC3   -15.448854    1.200862   17.782392 H    276 MOH     0.0372 ****
1962 O1    -14.775086    2.996338   18.396161 O    276 MOH    -0.6497 ****
1963 HO1   -14.270482    3.026549   17.580159 H    276 MOH     0.4215 ****
1964 HC1   -15.216182   -0.199429   26.192720 H    277 MOH     0.0372 ****
1965 C1    -14.434450    0.473772   25.841288 C    277 MOH     0.1166 ****
1966 HC2   -13.874997    0.038988   25.013266 H    277 MOH     0.0372 ****
1967 HC3   -13.749135    0.678713   26.662946 H    277 MOH     0.0372 ****
1968 O1    -15.008336    1.673206   25.395811 O    277 MOH    -0.6497 ****
1969 HO1   -14.813192    2.316605   26.081704 H    277 MOH     0.4215 ****
1970 HC1    -4.087294    7.134996   21.648852 H    278 MOH     0.0372 ****
1971 C1     -4.274355    6.149077   22.073823 C    278 MOH     0.1166 ****
1972 HC2    -4.666376    6.243790   23.086400 H    278 MOH     0.0372 ****
1973 HC3    -3.317108    5.632643   22.142412 H    278 MOH     0.0372 ****
1974 O1     -5.115555    5.345236   21.224588 O    278 MOH    -0.6497 ****
1975 HO1    -5.831469    4.999041   21.761989 H    278 MOH     0.4215 ****
1976 HC1    -1.456886    7.606931   28.285756 H    279 MOH     0.0372 ****
1977 C1     -2.305591    8.041716   28.813965 C    279 MOH     0.1166 ****
1978 HC2    -2.441845    9.068869   28.475968 H    279 MOH     0.0372 ****
1979 HC3    -2.141046    8.029468   29.891596 H    279 MOH     0.0372 ****
1980 O1     -3.471261    7.343611   28.480210 O    279 MOH    -0.6497 ****
1981 HO1    -3.444126    6.543036   29.009833 H    279 MOH     0.4215 ****
1982 HC1    -2.562512   14.682691   18.671932 H    280 MOH     0.0372 ****
1983 C1     -3.354636   14.150335   19.198020 C    280 MOH     0.1166 ****
1984 HC2    -3.327501   14.407940   20.256559 H    280 MOH     0.0372 ****
1985 HC3    -3.188937   13.082766   19.055891 H    280 MOH     0.0372 ****
1986 O1     -4.583238   14.565932   18.642234 O    280 MOH    -0.6497 ****
1987 HO1    -5.277790   14.207081   19.200141 H    280 MOH     0.4215 ****
1988 HC1    -1.866227   22.573722   17.552582 H    281 MOH     0.0372 ****
1989 C1     -1.328714   22.916242   16.667992 C    281 MOH     0.1166 ****
1990 HC2    -1.656649   22.342245   15.801079 H    281 MOH     0.0372 ****
1991 HC3    -0.269276   22.731714   16.846183 H    281 MOH     0.0372 ****
1992 O1     -1.589099   24.296938   16.399291 O    281 MOH    -0.6497 ****
1993 HO1    -1.329869   24.501879   15.498437 H    281 MOH     0.4215 ****
1994 HC1    -7.407635   19.716800   20.621426 H    282 MOH     0.0372 ****
1995 C1     -7.362024   19.262012   19.631476 C    282 MOH     0.1166 ****
1996 HC2    -6.444615   18.683116   19.522582 H    282 MOH     0.0372 ****
1997 HC3    -7.372417   20.039725   18.868508 H    282 MOH     0.0372 ****
1998 O1     -8.465341   18.425511   19.414394 O    282 MOH    -0.6497 ****
1999 HO1    -8.206111   17.537979   19.671781 H    282 MOH     0.4215 ****
2000 HC1     0.699517   15.159933   19.116702 H    283 MOH     0.0372 ****
2001 C1      0.898126   16.120541   19.591171 C    283 MOH     0.1166 ****
2002 HC2     1.962760   16.337729   19.507732 H    283 MOH     0.0372 ****
2003 HC3     0.668918   16.085432   20.656074 H    283 MOH     0.0372 ****
2004 O1      0.104847   17.116259   18.939926 O    283 MOH    -0.6497 ****
2005 HO1     0.152189   17.892339   19.503490 H    283 MOH     0.4215 ****
2006 HC1   -13.725579   13.873134   27.562386 H    284 MOH     0.0372 ****
2007 C1    -12.811056   14.179321   27.054683 C    284 MOH     0.1166 ****
2008 HC2   -12.215808   14.833743   27.691786 H    284 MOH     0.0372 ****
2009 HC3   -13.086452   14.725557   26.152415 H    284 MOH     0.0372 ****
2010 O1    -12.108998   13.039900   26.656582 O    284 MOH    -0.6497 ****
2011 HO1   -11.174268   13.238717   26.746385 H    284 MOH     0.4215 ****
2012 HC1    -0.459225    9.692672   24.128675 H    285 MOH     0.0372 ****
2013 C1     -0.411882   10.416088   24.943262 C    285 MOH     0.1166 ****
2014 HC2    -1.205161   11.143586   24.772142 H    285 MOH     0.0372 ****
2015 HC3     0.548829   10.929664   24.896593 H    285 MOH     0.0372 ****
2016 O1     -0.597211    9.774322   26.237268 O    285 MOH    -0.6497 ****
2017 HO1    -0.788892   10.449972   26.892756 H    285 MOH     0.4215 ****
2018 HC1   -16.779762   13.535513   22.706683 H    286 MOH     0.0372 ****
2019 C1    -16.737038   13.777196   23.768758 C    286 MOH     0.1166 ****
2020 HC2   -15.700117   13.715142   24.099684 H    286 MOH     0.0372 ****
2021 HC3   -17.334596   13.075417   24.350707 H    286 MOH     0.0372 ****
2022 O1    -17.170628   15.070935   24.038165 O    286 MOH    -0.6497 ****
2023 HO1   -17.940236   15.262403   23.497229 H    286 MOH     0.4215 ****
2024 HC1   -13.470390   15.644932   23.093471 H    287 MOH     0.0372 ****
2025 C1    -14.010790   16.514501   22.720118 C    287 MOH     0.1166 ****
2026 HC2   -14.454195   16.185044   21.780374 H    287 MOH     0.0372 ****
2027 HC3   -13.287948   17.317525   22.573747 H    287 MOH     0.0372 ****
2028 O1    -15.002101   16.852939   23.713603 O    287 MOH    -0.6497 ****
2029 HO1   -15.637763   16.138912   23.796335 H    287 MOH     0.4215 ****
2030 HC1   -15.026927    8.872909   18.784362 H    288 MOH     0.0372 ****
2031 C1    -14.614121    9.880466   18.747593 C    288 MOH     0.1166 ****
2032 HC2   -14.699569   10.351176   19.726935 H    288 MOH     0.0372 ****
2033 HC3   -15.190894   10.468344   18.033415 H    288 MOH     0.0372 ****
2034 O1    -13.274669    9.824944   18.316257 O    288 MOH    -0.6497 ****
2035 HO1   -13.241182    9.164399   17.620464 H    288 MOH     0.4215 ****
2036 HC1     1.086342    7.029668   24.733252 H    289 MOH     0.0372 ****
2037 C1      0.406223    6.460978   25.367526 C    289 MOH     0.1166 ****
2038 HC2     0.760716    6.498129   26.397781 H    289 MOH     0.0372 ****
2039 HC3     0.351375    5.424436   25.035893 H    289 MOH     0.0372 ****
2040 O1     -0.826419    7.083965   25.285502 O    289 MOH    -0.6497 ****
2041 HO1    -0.724228    7.976804   25.621378 H    289 MOH     0.4215 ****
2042 HC1    -5.045695   13.493055   29.716940 H    290 MOH     0.0372 ****
2043 C1     -5.185991   13.338737   28.647795 C    290 MOH     0.1166 ****
2044 HC2    -5.382290   14.293222   28.158477 H    290 MOH     0.0372 ****
2045 HC3    -6.020262   12.659821   28.471725 H    290 MOH     0.0372 ****
2046 O1     -4.010506   12.784336   28.096251 O    290 MOH    -0.6497 ****
2047 HO1    -3.363874   12.683499   28.798408 H    290 MOH     0.4215 ****
2048 HC1    -7.589500   13.286890   22.348180 H    291 MOH     0.0372 ****
2049 C1     -7.750581   12.274026   22.716583 C    291 MOH     0.1166 ****
2050 HC2    -8.501714   12.318933   23.504300 H    291 MOH     0.0372 ****
2051 HC3    -6.825666   11.873534   23.131655 H    291 MOH     0.0372 ****
2052 O1     -8.202069   11.427319   21.660165 O    291 MOH    -0.6497 ****
2053 HO1    -7.797347   10.569181   21.810072 H    291 MOH     0.4215 ****
2054 HC1    -5.375362    9.004774   30.319395 H    292 MOH     0.0372 ****
2055 C1     -5.561269    9.590610   29.419248 C    292 MOH     0.1166 ****
2056 HC2    -5.543371    8.966806   28.525465 H    292 MOH     0.0372 ****
2057 HC3    -4.813600   10.376080   29.310354 H    292 MOH     0.0372 ****
2058 O1     -6.803727   10.178896   29.548649 O    292 MOH    -0.6497 ****
2059 HO1    -7.102217   10.289531   28.642845 H    292 MOH     0.4215 ****
2060 HC1    -5.945207   20.932564   22.652236 H    293 MOH     0.0372 ****
2061 C1     -6.182498   20.645974   23.677541 C    293 MOH     0.1166 ****
2062 HC2    -5.420395   19.983387   24.086956 H    293 MOH     0.0372 ****
2063 HC3    -7.135703   20.117292   23.658449 H    293 MOH     0.0372 ****
2064 O1     -6.284112   21.772331   24.515463 O    293 MOH    -0.6497 ****
2065 HO1    -5.510462   22.328773   24.395962 H    293 MOH     0.4215 ****
2066 HC1    -8.254031    5.950260   29.004177 H    294 MOH     0.0372 ****
2067 C1     -8.661063    6.950876   28.859220 C    294 MOH     0.1166 ****
2068 HC2    -9.706644    6.905153   28.553750 H    294 MOH     0.0372 ****
2069 HC3    -8.104497    7.408523   28.042511 H    294 MOH     0.0372 ****
2070 O1     -8.506333    7.774721   30.016046 O    294 MOH    -0.6497 ****
2071 HO1    -8.223431    8.654905   29.755831 H    294 MOH     0.4215 ****
2072 HC1    -8.848124   10.355667   31.226613 H    295 MOH     0.0372 ****
2073 C1     -8.759790   11.341587   31.682697 C    295 MOH     0.1166 ****
2074 HC2    -9.360811   11.373430   32.590622 H    295 MOH     0.0372 ****
2075 HC3    -9.111973   12.076842   30.959327 H    295 MOH     0.0372 ****
2076 O1     -7.419760   11.545303   31.990288 O    295 MOH    -0.6497 ****
2077 HO1    -6.934785   11.078675   31.306516 H    295 MOH     0.4215 ****
2078 HC1    -6.884556    5.518333   32.040493 H    296 MOH     0.0372 ****
2079 C1     -5.808375    5.526498   31.870787 C    296 MOH     0.1166 ****
2080 HC2    -5.388064    6.386677   32.390511 H    296 MOH     0.0372 ****
2081 HC3    -5.604570    5.586919   30.801642 H    296 MOH     0.0372 ****
2082 O1     -5.214859    4.381770   32.371419 O    296 MOH    -0.6497 ****
2083 HO1    -5.676739    4.120491   33.170450 H    296 MOH     0.4215 ****
2084 HC1   -10.238383   20.186286   24.639206 H    297 MOH     0.0372 ****
2085 C1    -10.820930   19.313451   24.934777 C    297 MOH     0.1166 ****
2086 HC2   -10.484912   18.398567   24.447580 H    297 MOH     0.0372 ****
2087 HC3   -11.841108   19.493489   24.597487 H    297 MOH     0.0372 ****
2088 O1    -10.827858   19.166482   26.337677 O    297 MOH    -0.6497 ****
2089 HO1   -11.014342   20.028294   26.718807 H    297 MOH     0.4215 ****
2090 HC1   -11.069191   17.171781   28.910131 H    298 MOH     0.0372 ****
2091 C1    -10.037466   16.888048   28.704363 C    298 MOH     0.1166 ****
2092 HC2    -9.766688   16.062162   29.361265 H    298 MOH     0.0372 ****
2093 HC3    -9.389101   17.738837   28.915081 H    298 MOH     0.0372 ****
2094 O1     -9.899479   16.568798   27.342476 O    298 MOH    -0.6497 ****
2095 HO1   -10.196237   17.361616   26.889927 H    298 MOH     0.4215 ****
2096 HC1    -5.575125   16.444282   23.223579 H    299 MOH     0.0372 ****
2097 C1     -5.560692   17.151776   22.394142 C    299 MOH     0.1166 ****
2098 HC2    -6.551425   17.582887   22.252721 H    299 MOH     0.0372 ****
2099 HC3    -5.221787   16.658612   21.483389 H    299 MOH     0.0372 ****
2100 O1     -4.683697   18.203424   22.701027 O    299 MOH    -0.6497 ****
2101 HO1    -4.487397   18.210364   23.640772 H    299 MOH     0.4215 ****
2102 HC1   -14.372211   12.988052   21.007506 H    300 MOH     0.0372 ****
2103 C1    -13.584128   13.022345   20.255144 C    300 MOH     0.1166 ****
2104 HC2   -14.004439   13.413855   19.328127 H    300 MOH     0.0372 ****
2105 HC3   -13.186334   12.024586   20.068468 H    300 MOH     0.0372 ****
2106 O1    -12.577807   13.922532   20.605162 O    300 MOH    -0.6497 ****
2107 HO1   -11.750464   13.457538   20.461619 H    300 MOH     0.4215 ****
2108 HC1   -11.168495   12.367515   18.289387 H    301 MOH     0.0372 ****
2109 C1    -10.738369   11.797600   19.113874 C    301 MOH     0.1166 ****
2110 HC2    -9.962987   11.153792   18.698802 H    301 MOH     0.0372 ****
2111 HC3   -11.483728   11.148894   19.574200 H    301 MOH     0.0372 ****
2112 O1    -10.169101   12.692072   20.053619 O    301 MOH    -0.6497 ****
2113 HO1    -9.754564   12.152776   20.730320 H    301 MOH     0.4215 ****
2114 HC1    -0.821223   21.082799   20.574757 H    302 MOH     0.0372 ****
2115 C1     -0.077596   20.561874   19.972302 C    302 MOH     0.1166 ****
2116 HC2     0.838081   21.151385   19.924218 H    302 MOH     0.0372 ****
2117 HC3    -0.413614   20.440625   18.942047 H    302 MOH     0.0372 ****
2118 O1      0.260731   19.333047   20.556372 O    302 MOH    -0.6497 ****
2119 HO1    -0.443059   19.061562   21.149634 H    302 MOH     0.4215 ****
2120 HC1    -0.105309   15.405698   25.234590 H    303 MOH     0.0372 ****
2121 C1     -0.144569   14.336088   25.029529 C    303 MOH     0.1166 ****
2122 HC2    -0.922837   13.907836   25.660976 H    303 MOH     0.0372 ****
2123 HC3     0.824225   13.899671   25.273481 H    303 MOH     0.0372 ****
2124 O1     -0.433244   14.044190   23.661278 O    303 MOH    -0.6497 ****
2125 HO1    -0.003695   13.229735   23.389042 H    303 MOH     0.4215 ****
2126 HC1     4.056232   14.085832   22.988112 H    304 MOH     0.0372 ****
2127 C1      3.533730   15.015005   23.215800 C    304 MOH     0.1166 ****
2128 HC2     2.501428   14.801899   23.494401 H    304 MOH     0.0372 ****
2129 HC3     3.574144   15.661262   22.339695 H    304 MOH     0.0372 ****
2130 O1      4.221354   15.578388   24.282118 O    304 MOH    -0.6497 ****
2131 HO1     4.683812   14.863137   24.724766 H    304 MOH     0.4215 ****
2132 HC1    -1.070639   16.230360   22.606981 H    305 MOH     0.0372 ****
2133 C1     -2.007678   16.486332   22.114128 C    305 MOH     0.1166 ****
2134 HC2    -2.845991   16.154426   22.727190 H    305 MOH     0.0372 ****
2135 HC3    -2.026153   15.987452   21.145392 H    305 MOH     0.0372 ****
2136 O1     -2.038278   17.869885   21.897046 O    305 MOH    -0.6497 ****
2137 HO1    -2.954532   18.111160   21.745018 H    305 MOH     0.4215 ****
2138 HC1    -4.400218   11.520399   20.899319 H    306 MOH     0.0372 ****
2139 C1     -4.094799   10.540195   20.532330 C    306 MOH     0.1166 ****
2140 HC2    -3.145635   10.619804   20.002707 H    306 MOH     0.0372 ****
2141 HC3    -4.861520   10.147869   19.865529 H    306 MOH     0.0372 ****
2142 O1     -3.941224    9.619595   21.606425 O    306 MOH    -0.6497 ****
2143 HO1    -3.091942    9.185628   21.498238 H    306 MOH     0.4215 ****
2144 HC1     1.440835    8.872093   27.572285 H    307 MOH     0.0372 ****
2145 C1      2.312057    9.375463   27.152971 C    307 MOH     0.1166 ****
2146 HC2     2.014144   10.324640   26.709615 H    307 MOH     0.0372 ****
2147 HC3     2.750843    8.763907   26.363840 H    307 MOH     0.0372 ****
2148 O1      3.280850    9.650622   28.138678 O    307 MOH    -0.6497 ****
2149 HO1     3.710976    8.812489   28.321819 H    307 MOH     0.4215 ****
2150 HC1    -7.114341   15.195859   15.824413 H    308 MOH     0.0372 ****
2151 C1     -6.190581   15.384061   15.276405 C    308 MOH     0.1166 ****
2152 HC2    -5.599951   14.469177   15.313882 H    308 MOH     0.0372 ****
2153 HC3    -5.668079   16.207498   15.763602 H    308 MOH     0.0372 ****
2154 O1     -6.463667   15.736380   13.922296 O    308 MOH    -0.6497 ****
2155 HO1    -5.681935   16.158508   13.558843 H    308 MOH     0.4215 ****
2156 HC1    -9.527665   10.457729   26.735071 H    309 MOH     0.0372 ****
2157 C1     -8.670878   10.199716   26.111403 C    309 MOH     0.1166 ****
2158 HC2    -8.484971   10.992943   25.388032 H    309 MOH     0.0372 ****
2159 HC3    -8.916829    9.295855   25.554203 H    309 MOH     0.0372 ****
2160 O1     -7.507517   10.009064   26.912555 O    309 MOH    -0.6497 ****
2161 HO1    -6.811232    9.661237   26.351112 H    309 MOH     0.4215 ****
2162 HC1    -3.472993   10.117658   25.918363 H    310 MOH     0.0372 ****
2163 C1     -3.971246    9.341987   25.338535 C    310 MOH     0.1166 ****
2164 HC2    -3.244362    8.596525   25.016094 H    310 MOH     0.0372 ****
2165 HC3    -4.433704    9.815963   24.472329 H    310 MOH     0.0372 ****
2166 O1     -4.946391    8.711243   26.135444 O    310 MOH    -0.6497 ****
2167 HO1    -4.474696    8.342187   26.884978 H    310 MOH     0.4215 ****
2168 HC1    -4.148493   21.816421   21.624810 H    311 MOH     0.0372 ****
2169 C1     -3.555554   21.477984   20.775575 C    311 MOH     0.1166 ****
2170 HC2    -3.188359   20.482266   21.023769 H    311 MOH     0.0372 ****
2171 HC3    -2.708581   22.147919   20.623547 H    311 MOH     0.0372 ****
2172 O1     -4.359803   21.426952   19.605313 O    311 MOH    -0.6497 ****
2173 HO1    -3.952771   20.776613   19.027607 H    311 MOH     0.4215 ****
2174 HC1    -5.134030   13.750252   23.593395 H    312 MOH     0.0372 ****
2175 C1     -4.206805   13.573480   24.137161 C    312 MOH     0.1166 ****
2176 HC2    -4.272623   12.648798   24.710624 H    312 MOH     0.0372 ****
2177 HC3    -3.983371   14.409981   24.799720 H    312 MOH     0.0372 ****
2178 O1     -3.203370   13.471418   23.206608 O    312 MOH    -0.6497 ****
2179 HO1    -2.393348   13.812305   23.593395 H    312 MOH     0.4215 ****
2180 HC1    -7.230966   13.894363   18.320500 H    313 MOH     0.0372 ****
2181 C1     -6.950951   12.986011   18.854366 C    313 MOH     0.1166 ****
2182 HC2    -6.142661   12.490397   18.316965 H    313 MOH     0.0372 ****
2183 HC3    -7.781758   12.280150   18.877700 H    313 MOH     0.0372 ****
2184 O1     -6.513320   13.247290   20.173827 O    313 MOH    -0.6497 ****
2185 HO1    -6.860884   12.542653   20.725370 H    313 MOH     0.4215 ****
2186 HC1    -2.796916    3.406873   30.161003 H    314 MOH     0.0372 ****
2187 C1     -2.215524    4.164174   30.687798 C    314 MOH     0.1166 ****
2188 HC2    -1.161860    3.920041   30.550619 H    314 MOH     0.0372 ****
2189 HC3    -2.445310    4.174788   31.752701 H    314 MOH     0.0372 ****
2190 O1     -2.343696    5.424436   30.135547 O    314 MOH    -0.6497 ****
2191 HO1    -1.545221    5.900862   30.376671 H    314 MOH     0.4215 ****
2192 HC1    -2.576368    3.084357   25.498341 H    315 MOH     0.0372 ****
2193 C1     -2.609277    4.169481   25.399346 C    315 MOH     0.1166 ****
2194 HC2    -2.164140    4.638558   26.276866 H    315 MOH     0.0372 ****
2195 HC3    -3.646775    4.495263   25.324393 H    315 MOH     0.0372 ****
2196 O1     -1.923385    4.546702   24.234034 O    315 MOH    -0.6497 ****
2197 HO1    -1.821771    5.499962   24.274339 H    315 MOH     0.4215 ****
2198 HC1    -7.122424   15.428152   23.788557 H    316 MOH     0.0372 ****
2199 C1     -7.752891   15.114617   24.620114 C    316 MOH     0.1166 ****
2200 HC2    -8.729190   14.801899   24.249590 H    316 MOH     0.0372 ****
2201 HC3    -7.923209   15.941728   25.310251 H    316 MOH     0.0372 ****
2202 O1     -7.150714   14.060520   25.315908 O    316 MOH    -0.6497 ****
2203 HO1    -7.801388   13.706161   25.925434 H    316 MOH     0.4215 ****
2204 HC1   -15.122189   10.092755   26.985387 H    317 MOH     0.0372 ****
2205 C1    -14.478444   10.877000   26.588700 C    317 MOH     0.1166 ****
2206 HC2   -14.444380   11.678392   27.326212 H    317 MOH     0.0372 ****
2207 HC3   -14.877393   11.317092   25.673704 H    317 MOH     0.0372 ****
2208 O1    -13.166704   10.412414   26.358183 O    317 MOH    -0.6497 ****
2209 HO1   -12.724454   11.199516   26.032914 H    317 MOH     0.4215 ****
2210 HC1    -8.629886   17.128506   21.827750 H    318 MOH     0.0372 ****
2211 C1     -8.763254   16.105844   21.474903 C    318 MOH     0.1166 ****
2212 HC2    -9.762069   16.028277   21.046397 H    318 MOH     0.0372 ****
2213 HC3    -8.689930   15.388960   22.292319 H    318 MOH     0.0372 ****
2214 O1     -7.842957   15.828644   20.463034 O    318 MOH    -0.6497 ****
2215 HO1    -7.726910   14.880691   20.371110 H    318 MOH     0.4215 ****
2216 HC1    -6.442883    7.853922   20.785474 H    319 MOH     0.0372 ****
2217 C1     -7.179582    8.199708   21.510259 C    319 MOH     0.1166 ****
2218 HC2    -7.450359    7.391785   22.191203 H    319 MOH     0.0372 ****
2219 HC3    -8.088331    8.499362   20.989828 H    319 MOH     0.0372 ****
2220 O1     -6.739641    9.281158   22.304340 O    319 MOH    -0.6497 ****
2221 HO1    -5.792209    9.212572   22.440104 H    319 MOH     0.4215 ****
2222 HC1    -5.494296   24.409206   21.137614 H    320 MOH     0.0372 ****
2223 C1     -6.341846   23.744578   21.307319 C    320 MOH     0.1166 ****
2224 HC2    -7.207295   24.388386   21.463590 H    320 MOH     0.0372 ****
2225 HC3    -6.109174   23.142820   22.185546 H    320 MOH     0.0372 ****
2226 O1     -6.475214   23.042799   20.091803 O    320 MOH    -0.6497 ****
2227 HO1    -5.629396   22.637000   19.886742 H    320 MOH     0.4215 ****
2228 HC1    -7.605666    5.603249   26.547688 H    321 MOH     0.0372 ****
2229 C1     -6.570477    5.907394   26.391417 C    321 MOH     0.1166 ****
2230 HC2    -5.981580    5.004757   26.223833 H    321 MOH     0.0372 ****
2231 HC3    -6.197509    6.464244   27.249845 H    321 MOH     0.0372 ****
2232 O1     -6.572787    6.638975   25.214791 O    321 MOH    -0.6497 ****
2233 HO1    -5.935392    7.348102   25.324393 H    321 MOH     0.4215 ****
2234 HC1    -2.490343   17.534305   18.937097 H    322 MOH     0.0372 ****
2235 C1     -3.414681   18.049514   18.675468 C    322 MOH     0.1166 ****
2236 HC2    -4.127708   18.002566   19.499247 H    322 MOH     0.0372 ****
2237 HC3    -3.850580   17.603299   17.782392 H    322 MOH     0.0372 ****
2238 O1     -3.176812   19.398775   18.396161 O    322 MOH    -0.6497 ****
2239 HO1    -2.672208   19.428985   17.580159 H    322 MOH     0.4215 ****
2240 HC1   -12.230819    7.314626   19.476620 H    323 MOH     0.0372 ****
2241 C1    -11.716977    7.623670   20.386666 C    323 MOH     0.1166 ****
2242 HC2   -10.633868    7.597542   20.270701 H    323 MOH     0.0372 ****
2243 HC3   -12.020086    6.984353   21.216810 H    323 MOH     0.0372 ****
2244 O1    -12.156341    8.881074   20.669509 O    323 MOH    -0.6497 ****
2245 HO1   -12.488317    9.243191   19.844315 H    323 MOH     0.4215 ****
2246 HC1   -10.379257   10.523457   23.210144 H    324 MOH     0.0372 ****
2247 C1    -11.261448   11.106844   23.471066 C    324 MOH     0.1166 ****
2248 HC2   -10.957185   12.105419   23.782193 H    324 MOH     0.0372 ****
2249 HC3   -11.796652   10.616946   24.284239 H    324 MOH     0.0372 ****
2250 O1    -12.082440   11.161957   22.303633 O    324 MOH    -0.6497 ****
2251 HO1   -12.173084   10.273201   21.950786 H    324 MOH     0.4215 ****
2252 HC1    -2.842527    1.530972   28.661230 H    325 MOH     0.0372 ****
2253 C1     -2.004791    1.759183   28.001499 C    325 MOH     0.1166 ****
2254 HC2    -1.647412    2.760616   28.236966 H    325 MOH     0.0372 ****
2255 HC3    -2.355243    1.714276   26.970538 H    325 MOH     0.0372 ****
2256 O1     -0.923992    0.817354   28.205853 O    325 MOH    -0.6497 ****
2257 HO1    -0.090875    1.205598   27.927960 H    325 MOH     0.4215 ****
2258 HC1    -8.648938   12.386294   28.276564 H    326 MOH     0.0372 ****
2259 C1     -8.960707   13.429777   28.241208 C    326 MOH     0.1166 ****
2260 HC2    -8.154726   14.087057   28.569306 H    326 MOH     0.0372 ****
2261 HC3    -9.803639   13.553068   28.920031 H    326 MOH     0.0372 ****
2262 O1     -9.413927   13.775971   26.947203 O    326 MOH    -0.6497 ****
2263 HO1    -9.625238   14.711676   26.976901 H    326 MOH     0.4215 ****
2264 HC1    -3.617908   16.203007   26.192720 H    327 MOH     0.0372 ****
2265 C1     -2.836176   16.876209   25.841288 C    327 MOH     0.1166 ****
2266 HC2    -2.276723   16.441424   25.013266 H    327 MOH     0.0372 ****
2267 HC3    -2.150861   17.081149   26.662946 H    327 MOH     0.0372 ****
2268 O1     -3.410062   18.075642   25.395811 O    327 MOH    -0.6497 ****
2269 HO1    -3.214917   18.719042   26.081704 H    327 MOH     0.4215 ****
2270 HC1    -3.428652   25.275346   18.784362 H    328 MOH     0.0372 ****
2271 C1     -3.015847   26.282903   18.747593 C    328 MOH     0.1166 ****
2272 HC2    -3.101295   26.753613   19.726935 H    328 MOH     0.0372 ****
2273 HC3    -3.592620   26.870780   18.033415 H    328 MOH     0.0372 ****
2274 O1     -1.676394   26.227381   18.316257 O    328 MOH    -0.6497 ****
2275 HO1    -1.642908   25.566835   17.620464 H    328 MOH     0.4215 ****
2276 HC1    -0.632545   23.717062   19.476620 H    329 MOH     0.0372 ****
2277 C1     -0.118703   24.026106   20.386666 C    329 MOH     0.1166 ****
2278 HC2     0.964406   23.999978   20.270701 H    329 MOH     0.0372 ****
2279 HC3    -0.421812   23.386789   21.216810 H    329 MOH     0.0372 ****
2280 O1     -0.558067   25.283511   20.669509 O    329 MOH    -0.6497 ****
2281 HO1    -0.890043   25.645627   19.844315 H    329 MOH     0.4215 ****
2282 HC1   -21.914600  -18.464621   12.259322 H    330 MOH     0.0372 ****
2283 C1    -22.950943  -18.325817   12.566207 C    330 MOH     0.1166 ****
2284 HC2   -23.514437  -17.961659   11.707779 H    330 MOH     0.0372 ****
2285 HC3   -23.020803  -17.575864   13.354631 H    330 MOH     0.0372 ****
2286 O1    -23.476332  -19.568524   12.983400 O    330 MOH    -0.6497 ****
2287 HO1   -24.239012  -19.416248   13.545550 H    330 MOH     0.4215 ****
2288 HC1    -9.048349  -23.017406   15.076436 H    331 MOH     0.0372 ****
2289 C1     -8.614759  -22.824304   16.057193 C    331 MOH     0.1166 ****
2290 HC2    -8.328971  -21.773473   16.108105 H    331 MOH     0.0372 ****
2291 HC3    -7.726794  -23.443617   16.183765 H    331 MOH     0.0372 ****
2292 O1     -9.569119  -23.139064   17.064820 O    331 MOH    -0.6497 ****
2293 HO1    -9.368201  -24.030678   17.357562 H    331 MOH     0.4215 ****
2294 HC1    -4.978607  -24.628762   10.461150 H    332 MOH     0.0372 ****
2295 C1     -5.173174  -23.887383   11.236139 C    332 MOH     0.1166 ****
2296 HC2    -6.237231  -23.845333   11.468777 H    332 MOH     0.0372 ****
2297 HC3    -4.871797  -22.899014   10.888950 H    332 MOH     0.0372 ****
2298 O1     -4.503448  -24.217656   12.447413 O    332 MOH    -0.6497 ****
2299 HO1    -4.721109  -25.112128   12.719649 H    332 MOH     0.4215 ****
2300 HC1   -14.160786  -26.323401    4.467006 H    333 MOH     0.0372 ****
2301 C1    -14.952910  -26.855756    4.993093 C    333 MOH     0.1166 ****
2302 HC2   -14.925775  -26.598152    6.051632 H    333 MOH     0.0372 ****
2303 HC3   -14.787211  -27.923326    4.850965 H    333 MOH     0.0372 ****
2304 O1    -16.181512  -26.440160    4.437307 O    333 MOH    -0.6497 ****
2305 HO1   -16.876064  -26.799010    4.995214 H    333 MOH     0.4215 ****
2306 HC1   -13.464501  -18.432369    3.347656 H    334 MOH     0.0372 ****
2307 C1    -12.926988  -18.089849    2.463065 C    334 MOH     0.1166 ****
2308 HC2   -13.254923  -18.663846    1.596152 H    334 MOH     0.0372 ****
2309 HC3   -11.867550  -18.274377    2.641256 H    334 MOH     0.0372 ****
2310 O1    -13.187373  -16.709153    2.194364 O    334 MOH    -0.6497 ****
2311 HO1   -12.928143  -16.504213    1.293510 H    334 MOH     0.4215 ****
2312 HC1   -10.095662  -20.264588   11.989915 H    335 MOH     0.0372 ****
2313 C1    -10.047165  -21.352161   11.939003 C    335 MOH     0.1166 ****
2314 HC2   -10.425329  -21.706929   10.980873 H    335 MOH     0.0372 ****
2315 HC3   -10.653960  -21.798785   12.726720 H    335 MOH     0.0372 ****
2316 O1     -8.710599  -21.786537   12.012542 O    335 MOH    -0.6497 ****
2317 HO1    -8.742931  -22.745921   12.033755 H    335 MOH     0.4215 ****
2318 HC1   -19.005909  -21.289291    6.416499 H    336 MOH     0.0372 ****
2319 C1    -18.960298  -21.744080    5.426550 C    336 MOH     0.1166 ****
2320 HC2   -18.042889  -22.322976    5.317655 H    336 MOH     0.0372 ****
2321 HC3   -18.970691  -20.966367    4.663581 H    336 MOH     0.0372 ****
2322 O1    -20.063615  -22.580580    5.209468 O    336 MOH    -0.6497 ****
2323 HO1   -19.804384  -23.468112    5.466855 H    336 MOH     0.4215 ****
2324 HC1   -10.898757  -25.846158    4.911776 H    337 MOH     0.0372 ****
2325 C1    -10.700148  -24.885550    5.386245 C    337 MOH     0.1166 ****
2326 HC2    -9.635514  -24.668362    5.302806 H    337 MOH     0.0372 ****
2327 HC3   -10.929356  -24.920660    6.451147 H    337 MOH     0.0372 ****
2328 O1    -11.493427  -23.889833    4.734999 O    337 MOH    -0.6497 ****
2329 HO1   -11.446085  -23.113753    5.298563 H    337 MOH     0.4215 ****
2330 HC1   -12.057499  -31.313419    9.923749 H    338 MOH     0.0372 ****
2331 C1    -12.010156  -30.590004   10.738336 C    338 MOH     0.1166 ****
2332 HC2   -12.803435  -29.862505   10.567216 H    338 MOH     0.0372 ****
2333 HC3   -11.049445  -30.076427   10.691667 H    338 MOH     0.0372 ****
2334 O1    -12.195485  -31.231770   12.032341 O    338 MOH    -0.6497 ****
2335 HO1   -12.387166  -30.556119   12.687829 H    338 MOH     0.4215 ****
2336 HC1    -5.299614  -22.598951   14.242757 H    339 MOH     0.0372 ****
2337 C1     -5.217053  -21.659164   14.788643 C    339 MOH     0.1166 ****
2338 HC2    -6.043818  -21.003517   14.515700 H    339 MOH     0.0372 ****
2339 HC3    -4.259806  -21.197027   14.543985 H    339 MOH     0.0372 ****
2340 O1     -5.258045  -22.017198   16.130025 O    339 MOH    -0.6497 ****
2341 HO1    -5.034033  -21.274186   16.694296 H    339 MOH     0.4215 ****
2342 HC1   -17.392215  -17.974723   13.986077 H    340 MOH     0.0372 ****
2343 C1    -18.057900  -17.115769   14.070930 C    340 MOH     0.1166 ****
2344 HC2   -19.100017  -17.435835   14.063859 H    340 MOH     0.0372 ****
2345 HC3   -17.922800  -16.491149   13.188461 H    340 MOH     0.0372 ****
2346 O1    -17.832156  -16.318868   15.274426 O    340 MOH    -0.6497 ****
2347 HO1   -17.904902  -16.885925   16.044465 H    340 MOH     0.4215 ****
2348 HC1   -20.451594  -13.720776   16.719752 H    341 MOH     0.0372 ****
2349 C1    -20.905969  -13.422755   15.775057 C    341 MOH     0.1166 ****
2350 HC2   -21.986769  -13.557477   15.823140 H    341 MOH     0.0372 ****
2351 HC3   -20.483348  -14.047375   14.987340 H    341 MOH     0.0372 ****
2352 O1    -20.624222  -12.065329   15.515549 O    341 MOH    -0.6497 ****
2353 HO1   -20.893845  -11.871003   14.614695 H    341 MOH     0.4215 ****
2354 HC1   -19.410632  -10.807108   19.843043 H    342 MOH     0.0372 ****
2355 C1    -19.752423  -11.476635   19.053911 C    342 MOH     0.1166 ****
2356 HC2   -20.250676  -12.352736   19.469690 H    342 MOH     0.0372 ****
2357 HC3   -18.880047  -11.794660   18.483276 H    342 MOH     0.0372 ****
2358 O1    -20.533578  -10.746687   18.131844 O    342 MOH    -0.6497 ****
2359 HO1   -20.506442  -11.233727   17.305236 H    342 MOH     0.4215 ****
2360 HC1   -13.880771  -19.476669   16.802483 H    343 MOH     0.0372 ****
2361 C1    -13.398106  -20.442584   16.655405 C    343 MOH     0.1166 ****
2362 HC2   -14.171178  -21.196619   16.507620 H    343 MOH     0.0372 ****
2363 HC3   -12.833457  -20.685083   17.554845 H    343 MOH     0.0372 ****
2364 O1    -12.489934  -20.414823   15.532520 O    343 MOH    -0.6497 ****
2365 HO1   -11.778638  -19.810616   15.761622 H    343 MOH     0.4215 ****
2366 HC1   -15.386500  -14.675260    7.930415 H    344 MOH     0.0372 ****
2367 C1    -15.967315  -14.293957    8.770457 C    344 MOH     0.1166 ****
2368 HC2   -15.669979  -13.286808    9.062493 H    344 MOH     0.0372 ****
2369 HC3   -15.759469  -14.949195    9.616864 H    344 MOH     0.0372 ****
2370 O1    -17.346604  -14.337639    8.485493 O    344 MOH    -0.6497 ****
2371 HO1   -17.751904  -15.012473    9.034915 H    344 MOH     0.4215 ****
2372 HC1   -16.454021  -23.673053   13.707477 H    345 MOH     0.0372 ****
2373 C1    -17.517500  -23.472195   13.575955 C    345 MOH     0.1166 ****
2374 HC2   -18.099469  -24.393203   13.602825 H    345 MOH     0.0372 ****
2375 HC3   -17.682622  -23.001484   12.606512 H    345 MOH     0.0372 ****
2376 O1    -17.967833  -22.581805   14.555298 O    345 MOH    -0.6497 ****
2377 HO1   -17.857559  -21.687333   14.225079 H    345 MOH     0.4215 ****
2378 HC1   -12.741081  -20.745504   10.910870 H    346 MOH     0.0372 ****
2379 C1    -13.145226  -20.399718    9.959811 C    346 MOH     0.1166 ****
2380 HC2   -14.078225  -20.923092    9.747679 H    346 MOH     0.0372 ****
2381 HC3   -12.424116  -20.544646    9.155831 H    346 MOH     0.0372 ****
2382 O1    -13.391755  -19.033719   10.113960 O    346 MOH    -0.6497 ****
2383 HO1   -12.567299  -18.578114   10.302051 H    346 MOH     0.4215 ****
2384 HC1   -17.543481  -20.073528    8.447310 H    347 MOH     0.0372 ****
2385 C1    -17.780772  -20.360118    9.472615 C    347 MOH     0.1166 ****
2386 HC2   -17.018669  -21.022705    9.882029 H    347 MOH     0.0372 ****
2387 HC3   -18.733977  -20.888799    9.453523 H    347 MOH     0.0372 ****
2388 O1    -17.882385  -19.233761   10.310536 O    347 MOH    -0.6497 ****
2389 HO1   -17.108736  -18.677318   10.191035 H    347 MOH     0.4215 ****
2390 HC1   -10.501540  -18.858172    9.244219 H    348 MOH     0.0372 ****
2391 C1    -10.081229  -17.974723    9.725052 C    348 MOH     0.1166 ****
2392 HC2    -9.827772  -17.232936    8.967740 H    348 MOH     0.0372 ****
2393 HC3    -9.194419  -18.257639   10.291444 H    348 MOH     0.0372 ****
2394 O1    -11.086395  -17.478293   10.548124 O    348 MOH    -0.6497 ****
2395 HO1   -10.730170  -17.281926   11.417158 H    348 MOH     0.4215 ****
2396 HC1   -21.836657  -20.819805   10.434280 H    349 MOH     0.0372 ****
2397 C1    -22.419204  -21.692640   10.729850 C    349 MOH     0.1166 ****
2398 HC2   -22.083186  -22.607525   10.242654 H    349 MOH     0.0372 ****
2399 HC3   -23.439382  -21.512603   10.392560 H    349 MOH     0.0372 ****
2400 O1    -22.426132  -21.839610   12.132750 O    349 MOH    -0.6497 ****
2401 HO1   -22.612616  -20.977797   12.513881 H    349 MOH     0.4215 ****
2402 HC1   -17.173399  -24.561809    9.018652 H    350 MOH     0.0372 ****
2403 C1    -17.158966  -23.854315    8.189216 C    350 MOH     0.1166 ****
2404 HC2   -18.149699  -23.423205    8.047794 H    350 MOH     0.0372 ****
2405 HC3   -16.820061  -24.347479    7.278462 H    350 MOH     0.0372 ****
2406 O1    -16.281970  -22.802667    8.496100 O    350 MOH    -0.6497 ****
2407 HO1   -16.085671  -22.795727    9.435845 H    350 MOH     0.4215 ****
2408 HC1   -12.419497  -19.923292    6.369830 H    351 MOH     0.0372 ****
2409 C1    -11.675870  -20.444217    5.767375 C    351 MOH     0.1166 ****
2410 HC2   -10.760192  -19.854706    5.719292 H    351 MOH     0.0372 ****
2411 HC3   -12.011888  -20.565467    4.737120 H    351 MOH     0.0372 ****
2412 O1    -11.337543  -21.673044    6.351445 O    351 MOH    -0.6497 ****
2413 HO1   -12.041333  -21.944529    6.944708 H    351 MOH     0.4215 ****
2414 HC1   -11.703583  -25.600393   11.029664 H    352 MOH     0.0372 ****
2415 C1    -11.742843  -26.670003   10.824603 C    352 MOH     0.1166 ****
2416 HC2   -12.521111  -27.098256   11.456049 H    352 MOH     0.0372 ****
2417 HC3   -10.774049  -27.106421   11.068555 H    352 MOH     0.0372 ****
2418 O1    -12.031518  -26.961901    9.456351 O    352 MOH    -0.6497 ****
2419 HO1   -11.601969  -27.776356    9.184115 H    352 MOH     0.4215 ****
2420 HC1    -7.542042  -26.920260    8.783186 H    353 MOH     0.0372 ****
2421 C1     -8.064544  -25.991087    9.010874 C    353 MOH     0.1166 ****
2422 HC2    -9.096846  -26.204192    9.289474 H    353 MOH     0.0372 ****
2423 HC3    -8.024130  -25.344829    8.134769 H    353 MOH     0.0372 ****
2424 O1     -7.376920  -25.427704   10.077191 O    353 MOH    -0.6497 ****
2425 HO1    -6.914462  -26.142955   10.519840 H    353 MOH     0.4215 ****
2426 HC1   -12.668913  -24.775731    8.402055 H    354 MOH     0.0372 ****
2427 C1    -13.605952  -24.519760    7.909202 C    354 MOH     0.1166 ****
2428 HC2   -14.444265  -24.851666    8.522263 H    354 MOH     0.0372 ****
2429 HC3   -13.624427  -25.018639    6.940465 H    354 MOH     0.0372 ****
2430 O1    -13.636552  -23.136206    7.692120 O    354 MOH    -0.6497 ****
2431 HO1   -14.552806  -22.894932    7.540092 H    354 MOH     0.4215 ****
2432 HC1   -10.157439  -32.133999   13.367359 H    355 MOH     0.0372 ****
2433 C1     -9.286217  -31.630628   12.948045 C    355 MOH     0.1166 ****
2434 HC2    -9.584130  -30.681451   12.504689 H    355 MOH     0.0372 ****
2435 HC3    -8.847431  -32.242184   12.158913 H    355 MOH     0.0372 ****
2436 O1     -8.317424  -31.355469   13.933751 O    355 MOH    -0.6497 ****
2437 HO1    -7.887298  -32.193603   14.116892 H    355 MOH     0.4215 ****
2438 HC1   -18.712615  -25.810233    1.619487 H    356 MOH     0.0372 ****
2439 C1    -17.788855  -25.622030    1.071479 C    356 MOH     0.1166 ****
2440 HC2   -17.198225  -26.536915    1.108956 H    356 MOH     0.0372 ****
2441 HC3   -17.266353  -24.798593    1.558675 H    356 MOH     0.0372 ****
2442 O1    -18.061941  -25.269712   -0.282631 O    356 MOH    -0.6497 ****
2443 HO1   -17.280209  -24.847583   -0.646083 H    356 MOH     0.4215 ****
2444 HC1   -14.604768  -16.554427   11.640604 H    357 MOH     0.0372 ****
2445 C1    -15.619750  -16.937772   11.536659 C    357 MOH     0.1166 ****
2446 HC2   -16.340860  -16.120459   11.557872 H    357 MOH     0.0372 ****
2447 HC3   -15.854731  -17.632611   12.342761 H    357 MOH     0.0372 ****
2448 O1    -15.747344  -17.649757   10.354377 O    357 MOH    -0.6497 ****
2449 HO1   -15.026811  -18.282951   10.322557 H    357 MOH     0.4215 ****
2450 HC1   -15.746767  -19.189670    7.419884 H    358 MOH     0.0372 ****
2451 C1    -15.153828  -19.528108    6.570648 C    358 MOH     0.1166 ****
2452 HC2   -14.786633  -20.523825    6.818843 H    358 MOH     0.0372 ****
2453 HC3   -14.306855  -18.858172    6.418620 H    358 MOH     0.0372 ****
2454 O1    -15.958077  -19.579139    5.400387 O    358 MOH    -0.6497 ****
2455 HO1   -15.551045  -20.229478    4.822680 H    358 MOH     0.4215 ****
2456 HC1   -19.990291  -18.868787   13.082395 H    359 MOH     0.0372 ****
2457 C1    -19.809003  -19.906962   13.361702 C    359 MOH     0.1166 ****
2458 HC2   -20.468337  -20.544238   12.772682 H    359 MOH     0.0372 ****
2459 HC3   -20.033593  -20.061688   14.417412 H    359 MOH     0.0372 ****
2460 O1    -18.478788  -20.302555   13.120578 O    359 MOH    -0.6497 ****
2461 HO1   -18.299232  -20.194369   12.183662 H    359 MOH     0.4215 ****
2462 HC1   -24.269034  -13.184338   14.411755 H    360 MOH     0.0372 ****
2463 C1    -25.176629  -13.248024   15.011382 C    360 MOH     0.1166 ****
2464 HC2   -25.787465  -14.094731   14.698841 H    360 MOH     0.0372 ****
2465 HC3   -25.725689  -12.315994   14.879153 H    360 MOH     0.0372 ****
2466 O1    -24.804815  -13.431328   16.335793 O    360 MOH    -0.6497 ****
2467 HO1   -24.277694  -14.233944   16.334379 H    360 MOH     0.4215 ****
2468 HC1   -16.732304  -27.255840    9.388469 H    361 MOH     0.0372 ****
2469 C1    -15.805079  -27.432611    9.932234 C    361 MOH     0.1166 ****
2470 HC2   -15.870897  -28.357294   10.505698 H    361 MOH     0.0372 ****
2471 HC3   -15.581645  -26.596110   10.594793 H    361 MOH     0.0372 ****
2472 O1    -14.801644  -27.534673    9.001682 O    361 MOH    -0.6497 ****
2473 HO1   -13.991622  -27.193786    9.388469 H    361 MOH     0.4215 ****
2474 HC1    -7.885566  -24.813290   13.541307 H    362 MOH     0.0372 ****
2475 C1     -8.895351  -25.134173   13.285334 C    362 MOH     0.1166 ****
2476 HC2    -9.592790  -24.703471   14.004462 H    362 MOH     0.0372 ****
2477 HC3    -8.976758  -26.220522   13.319983 H    362 MOH     0.0372 ****
2478 O1     -9.250422  -24.674894   12.013249 O    362 MOH    -0.6497 ****
2479 HO1    -8.651709  -25.082326   11.383924 H    362 MOH     0.4215 ****
2480 HC1   -12.082325  -17.704871   14.815513 H    363 MOH     0.0372 ****
2481 C1    -12.574804  -17.268454   13.946479 C    363 MOH     0.1166 ****
2482 HC2   -13.517040  -16.781005   14.196795 H    363 MOH     0.0372 ****
2483 HC3   -12.827107  -18.102913   13.291698 H    363 MOH     0.0372 ****
2484 O1    -11.737069  -16.343363   13.246443 O    363 MOH    -0.6497 ****
2485 HO1   -12.278046  -15.643625   12.874505 H    363 MOH     0.4215 ****
2486 HC1    -5.741287  -29.104796   12.476404 H    364 MOH     0.0372 ****
2487 C1     -6.647149  -28.780239   11.965166 C    364 MOH     0.1166 ****
2488 HC2    -7.532805  -29.172974   12.464383 H    364 MOH     0.0372 ****
2489 HC3    -6.639644  -29.128475   10.932083 H    364 MOH     0.0372 ****
2490 O1     -6.740103  -27.388112   11.979308 O    364 MOH    -0.6497 ****
2491 HO1    -6.469903  -27.102747   12.855414 H    364 MOH     0.4215 ****
2492 HC1    -9.427091  -18.341738   18.564594 H    365 MOH     0.0372 ****
2493 C1     -9.766573  -19.087608   17.845466 C    365 MOH     0.1166 ****
2494 HC2   -10.272909  -19.924925   18.327006 H    365 MOH     0.0372 ****
2495 HC3    -8.879763  -19.484425   17.350491 H    365 MOH     0.0372 ****
2496 O1    -10.607772  -18.467070   16.890872 O    365 MOH    -0.6497 ****
2497 HO1   -10.078342  -17.782030   16.475093 H    365 MOH     0.4215 ****
2498 HC1   -18.720698  -25.577939    9.583630 H    366 MOH     0.0372 ****
2499 C1    -19.351165  -25.891474   10.415188 C    366 MOH     0.1166 ****
2500 HC2   -20.327464  -26.204192   10.044664 H    366 MOH     0.0372 ****
2501 HC3   -19.521483  -25.064363   11.105324 H    366 MOH     0.0372 ****
2502 O1    -18.748988  -26.945571   11.110981 O    366 MOH    -0.6497 ****
2503 HO1   -19.399662  -27.299931   11.720507 H    366 MOH     0.4215 ****
2504 HC1   -16.058536  -20.845525   12.727427 H    367 MOH     0.0372 ****
2505 C1    -15.402089  -20.569957   13.552621 C    367 MOH     0.1166 ****
2506 HC2   -15.948839  -20.605883   14.495901 H    367 MOH     0.0372 ****
2507 HC3   -15.055679  -19.547295   13.402007 H    367 MOH     0.0372 ****
2508 O1    -14.283184  -21.441976   13.617675 O    367 MOH    -0.6497 ****
2509 HO1   -13.678121  -21.115377   14.288012 H    367 MOH     0.4215 ****
2510 HC1   -19.602312  -10.736481   12.775510 H    368 MOH     0.0372 ****
2511 C1    -20.509907  -10.356810   12.305991 C    368 MOH     0.1166 ****
2512 HC2   -20.379425  -10.376814   11.223411 H    368 MOH     0.0372 ****
2513 HC3   -20.653089   -9.325983   12.627725 H    368 MOH     0.0372 ****
2514 O1    -21.650173  -11.150036   12.680051 O    368 MOH    -0.6497 ****
2515 HO1   -22.423245  -10.645033   12.417714 H    368 MOH     0.4215 ****
2516 HC1   -20.228160  -23.877585    7.622823 H    369 MOH     0.0372 ****
2517 C1    -20.361527  -24.900247    7.269977 C    369 MOH     0.1166 ****
2518 HC2   -21.360343  -24.977814    6.841470 H    369 MOH     0.0372 ****
2519 HC3   -20.288204  -25.617131    8.087392 H    369 MOH     0.0372 ****
2520 O1    -19.441231  -25.177448    6.258107 O    369 MOH    -0.6497 ****
2521 HO1   -19.325184  -26.125400    6.166183 H    369 MOH     0.4215 ****
2522 HC1   -17.092570  -16.596885    6.932687 H    370 MOH     0.0372 ****
2523 C1    -17.940120  -17.261513    7.102393 C    370 MOH     0.1166 ****
2524 HC2   -18.805569  -16.617706    7.258663 H    370 MOH     0.0372 ****
2525 HC3   -17.707448  -17.863271    7.980619 H    370 MOH     0.0372 ****
2526 O1    -18.073488  -17.963292    5.886876 O    370 MOH    -0.6497 ****
2527 HO1   -17.227670  -18.369091    5.681815 H    370 MOH     0.4215 ****
2528 HC1   -21.063008  -15.590961   10.182550 H    371 MOH     0.0372 ****
2529 C1    -20.191787  -16.246200   10.163458 C    371 MOH     0.1166 ****
2530 HC2   -20.192364  -16.817747    9.235734 H    371 MOH     0.0372 ****
2531 HC3   -20.219499  -16.955327   10.991480 H    371 MOH     0.0372 ****
2532 O1    -19.013415  -15.461547   10.236997 O    371 MOH    -0.6497 ****
2533 HO1   -19.042860  -14.950828   11.049463 H    371 MOH     0.4215 ****
2534 HC1    -6.249355  -24.754094   15.649192 H    372 MOH     0.0372 ****
2535 C1     -5.609073  -25.629378   15.758087 C    372 MOH     0.1166 ****
2536 HC2    -5.759185  -26.030278   16.760764 H    372 MOH     0.0372 ****
2537 HC3    -4.570420  -25.316660   15.652021 H    372 MOH     0.0372 ****
2538 O1     -5.988393  -26.571207   14.754702 O    372 MOH    -0.6497 ****
2539 HO1    -6.059407  -27.444450   15.147147 H    372 MOH     0.4215 ****
2540 HC1    -7.314566  -21.219481   10.138002 H    373 MOH     0.0372 ****
2541 C1     -7.761435  -20.805517    9.234320 C    373 MOH     0.1166 ****
2542 HC2    -8.789119  -20.486675    9.406147 H    373 MOH     0.0372 ****
2543 HC3    -7.730836  -21.577923    8.464987 H    373 MOH     0.0372 ****
2544 O1     -6.950835  -19.741213    8.846118 O    373 MOH    -0.6497 ****
2545 HO1    -6.768970  -19.194977    9.614036 H    373 MOH     0.4215 ****
2546 HC1   -14.088617  -23.471786    4.732171 H    374 MOH     0.0372 ****
2547 C1    -15.012955  -22.956577    4.470541 C    374 MOH     0.1166 ****
2548 HC2   -15.725982  -23.003526    5.294321 H    374 MOH     0.0372 ****
2549 HC3   -15.448854  -23.402792    3.577465 H    374 MOH     0.0372 ****
2550 O1    -14.775086  -21.607316    4.191234 O    374 MOH    -0.6497 ****
2551 HO1   -14.270482  -21.577106    3.375233 H    374 MOH     0.4215 ****
2552 HC1   -22.366665  -16.278451   14.784401 H    375 MOH     0.0372 ****
2553 C1    -22.737324  -16.675269   15.729095 C    375 MOH     0.1166 ****
2554 HC2   -21.882846  -16.798151   16.394483 H    375 MOH     0.0372 ****
2555 HC3   -23.209019  -17.650982   15.613130 H    375 MOH     0.0372 ****
2556 O1    -23.592380  -15.739972   16.291245 O    375 MOH    -0.6497 ****
2557 HO1   -23.407628  -15.738339   17.233111 H    375 MOH     0.4215 ****
2558 HC1   -22.368974  -14.864688   11.709193 H    376 MOH     0.0372 ****
2559 C1    -21.802594  -14.559726   12.589541 C    376 MOH     0.1166 ****
2560 HC2   -21.416924  -15.453382   13.080980 H    376 MOH     0.0372 ****
2561 HC3   -22.456732  -14.035944   13.286041 H    376 MOH     0.0372 ****
2562 O1    -20.707938  -13.745271   12.184369 O    376 MOH    -0.6497 ****
2563 HO1   -21.058967  -12.869986   12.007592 H    376 MOH     0.4215 ****
2564 HC1   -15.134198  -16.737322   16.917035 H    377 MOH     0.0372 ****
2565 C1    -14.188498  -16.394394   17.337056 C    377 MOH     0.1166 ****
2566 HC2   -14.302237  -15.419905   17.812939 H    377 MOH     0.0372 ****
2567 HC3   -13.458728  -16.280901   16.535197 H    377 MOH     0.0372 ****
2568 O1    -13.746826  -17.316627   18.309328 O    377 MOH    -0.6497 ****
2569 HO1   -12.915441  -17.704871   18.027192 H    377 MOH     0.4215 ****
2570 HC1   -15.216182  -24.803084   11.987793 H    378 MOH     0.0372 ****
2571 C1    -14.434450  -24.129883   11.636361 C    378 MOH     0.1166 ****
2572 HC2   -13.874997  -24.564667   10.808339 H    378 MOH     0.0372 ****
2573 HC3   -13.749135  -23.924942   12.458019 H    378 MOH     0.0372 ****
2574 O1    -15.008336  -22.930449   11.190884 O    378 MOH    -0.6497 ****
2575 HO1   -14.813191  -22.287050   11.876778 H    378 MOH     0.4215 ****
2576 HC1   -10.316326   -2.062185   12.259322 H    379 MOH     0.0372 ****
2577 C1    -11.352669   -1.923380   12.566207 C    379 MOH     0.1166 ****
2578 HC2   -11.916163   -1.559223   11.707779 H    379 MOH     0.0372 ****
2579 HC3   -11.422529   -1.173428   13.354631 H    379 MOH     0.0372 ****
2580 O1    -11.878058   -3.166088   12.983400 O    379 MOH    -0.6497 ****
2581 HO1   -12.640738   -3.013811   13.545550 H    379 MOH     0.4215 ****
2582 HC1   -15.817896  -12.603155   16.350642 H    380 MOH     0.0372 ****
2583 C1    -16.618681  -12.997115   16.976432 C    380 MOH     0.1166 ****
2584 HC2   -17.184485  -13.727471   16.397311 H    380 MOH     0.0372 ****
2585 HC3   -17.291294  -12.220218   17.337763 H    380 MOH     0.0372 ****
2586 O1    -16.121583  -13.738086   18.020828 O    380 MOH    -0.6497 ****
2587 HO1   -15.577141  -13.142043   18.539845 H    380 MOH     0.4215 ****
2588 HC1    -3.708552  -11.364122   20.857034 H    381 MOH     0.0372 ****
2589 C1     -3.647353  -10.584368   21.615052 C    381 MOH     0.1166 ****
2590 HC2    -3.287086  -11.030175   22.542776 H    381 MOH     0.0372 ****
2591 HC3    -4.640395  -10.158973   21.760716 H    381 MOH     0.0372 ****
2592 O1     -2.776131   -9.561706   21.187253 O    381 MOH    -0.6497 ****
2593 HO1    -1.889321   -9.921781   21.120785 H    381 MOH     0.4215 ****
2594 HC1     2.549925   -6.614969   15.076436 H    382 MOH     0.0372 ****
2595 C1      2.983515   -6.421868   16.057193 C    382 MOH     0.1166 ****
2596 HC2     3.269303   -5.371037   16.108105 H    382 MOH     0.0372 ****
2597 HC3     3.871480   -7.041181   16.183765 H    382 MOH     0.0372 ****
2598 O1      2.029155   -6.736627   17.064820 O    382 MOH    -0.6497 ****
2599 HO1     2.230073   -7.628242   17.357562 H    382 MOH     0.4215 ****
2600 HC1    -4.087294  -17.468659    7.443925 H    383 MOH     0.0372 ****
2601 C1     -4.274355  -18.454578    7.868896 C    383 MOH     0.1166 ****
2602 HC2    -4.666376  -18.359865    8.881473 H    383 MOH     0.0372 ****
2603 HC3    -3.317108  -18.971012    7.937486 H    383 MOH     0.0372 ****
2604 O1     -5.115554  -19.258419    7.019661 O    383 MOH    -0.6497 ****
2605 HO1    -5.831469  -19.604614    7.557062 H    383 MOH     0.4215 ****
2606 HC1     6.619667   -8.226325   10.461150 H    384 MOH     0.0372 ****
2607 C1      6.425100   -7.484947   11.236139 C    384 MOH     0.1166 ****
2608 HC2     5.361044   -7.442897   11.468777 H    384 MOH     0.0372 ****
2609 HC3     6.726477   -6.496577   10.888950 H    384 MOH     0.0372 ****
2610 O1      7.094826   -7.815219   12.447413 O    384 MOH    -0.6497 ****
2611 HO1     6.877165   -8.709691   12.719649 H    384 MOH     0.4215 ****
2612 HC1    -2.562511   -9.920964    4.467006 H    385 MOH     0.0372 ****
2613 C1     -3.354636  -10.453320    4.993093 C    385 MOH     0.1166 ****
2614 HC2    -3.327501  -10.195715    6.051632 H    385 MOH     0.0372 ****
2615 HC3    -3.188937  -11.520889    4.850965 H    385 MOH     0.0372 ****
2616 O1     -4.583237  -10.037723    4.437307 O    385 MOH    -0.6497 ****
2617 HO1    -5.277790  -10.396573    4.995214 H    385 MOH     0.4215 ****
2618 HC1    -1.866227   -2.029933    3.347656 H    386 MOH     0.0372 ****
2619 C1     -1.328714   -1.687413    2.463065 C    386 MOH     0.1166 ****
2620 HC2    -1.656649   -2.261410    1.596152 H    386 MOH     0.0372 ****
2621 HC3    -0.269276   -1.871941    2.641256 H    386 MOH     0.0372 ****
2622 O1     -1.589099   -0.306717    2.194364 O    386 MOH    -0.6497 ****
2623 HO1    -1.329869   -0.101776    1.293510 H    386 MOH     0.4215 ****
2624 HC1   -11.204868   -8.835024   21.313118 H    387 MOH     0.0372 ****
2625 C1    -12.225046   -9.127738   21.561312 C    387 MOH     0.1166 ****
2626 HC2   -12.386126   -9.070175   22.636821 H    387 MOH     0.0372 ****
2627 HC3   -12.433469  -10.149991   21.244528 H    387 MOH     0.0372 ****
2628 O1    -13.111278   -8.235307   20.960271 O    387 MOH    -0.6497 ****
2629 HO1   -12.659790   -7.858902   20.200839 H    387 MOH     0.4215 ****
2630 HC1     1.502612   -3.862151   11.989915 H    388 MOH     0.0372 ****
2631 C1      1.551109   -4.949725   11.939003 C    388 MOH     0.1166 ****
2632 HC2     1.172945   -5.304492   10.980873 H    388 MOH     0.0372 ****
2633 HC3     0.944314   -5.396348   12.726720 H    388 MOH     0.0372 ****
2634 O1      2.887675   -5.384101   12.012542 O    388 MOH    -0.6497 ****
2635 HO1     2.855343   -6.343484   12.033755 H    388 MOH     0.4215 ****
2636 HC1    -7.407635   -4.886854    6.416499 H    389 MOH     0.0372 ****
2637 C1     -7.362024   -5.341643    5.426550 C    389 MOH     0.1166 ****
2638 HC2    -6.444615   -5.920539    5.317655 H    389 MOH     0.0372 ****
2639 HC3    -7.372417   -4.563930    4.663581 H    389 MOH     0.0372 ****
2640 O1     -8.465341   -6.178144    5.209468 O    389 MOH    -0.6497 ****
2641 HO1    -8.206110   -7.065676    5.466855 H    389 MOH     0.4215 ****
2642 HC1     0.699518   -9.443722    4.911776 H    390 MOH     0.0372 ****
2643 C1      0.898126   -8.483114    5.386245 C    390 MOH     0.1166 ****
2644 HC2     1.962760   -8.265926    5.302806 H    390 MOH     0.0372 ****
2645 HC3     0.668918   -8.518223    6.451147 H    390 MOH     0.0372 ****
2646 O1      0.104847   -7.487396    4.734999 O    390 MOH    -0.6497 ****
2647 HO1     0.152189   -6.711316    5.298563 H    390 MOH     0.4215 ****
2648 HC1   -16.605980   -6.048321   17.517368 H    391 MOH     0.0372 ****
2649 C1    -15.565594   -6.020968   17.191392 C    391 MOH     0.1166 ****
2650 HC2   -14.981316   -6.660693   17.853951 H    391 MOH     0.0372 ****
2651 HC3   -15.224380   -4.987283   17.245132 H    391 MOH     0.0372 ****
2652 O1    -15.498622   -6.503109   15.868395 O    391 MOH    -0.6497 ****
2653 HO1   -16.093292   -7.255919   15.824555 H    391 MOH     0.4215 ****
2654 HC1   -13.725579  -10.730520   13.357459 H    392 MOH     0.0372 ****
2655 C1    -12.811056  -10.424334   12.849757 C    392 MOH     0.1166 ****
2656 HC2   -12.215808   -9.769912   13.486860 H    392 MOH     0.0372 ****
2657 HC3   -13.086452   -9.878098   11.947488 H    392 MOH     0.0372 ****
2658 O1    -12.108998  -11.563755   12.451655 O    392 MOH    -0.6497 ****
2659 HO1   -11.174268  -11.364938   12.541458 H    392 MOH     0.4215 ****
2660 HC1   -16.779762  -11.068142    8.501757 H    393 MOH     0.0372 ****
2661 C1    -16.737038  -10.826459    9.563831 C    393 MOH     0.1166 ****
2662 HC2   -15.700117  -10.888513    9.894757 H    393 MOH     0.0372 ****
2663 HC3   -17.334596  -11.528238   10.145780 H    393 MOH     0.0372 ****
2664 O1    -17.170628   -9.532720    9.833239 O    393 MOH    -0.6497 ****
2665 HO1   -17.940236   -9.341252    9.292302 H    393 MOH     0.4215 ****
2666 HC1   -19.383034   -7.130587   16.216999 H    394 MOH     0.0372 ****
2667 C1    -19.817779   -8.016078   16.680154 C    394 MOH     0.1166 ****
2668 HC2   -20.230007   -8.690912   15.929914 H    394 MOH     0.0372 ****
2669 HC3   -20.639926   -7.729895   17.337056 H    394 MOH     0.0372 ****
2670 O1    -18.912494   -8.718673   17.475649 O    394 MOH    -0.6497 ****
2671 HO1   -19.439037   -9.436373   17.836273 H    394 MOH     0.4215 ****
2672 HC1     6.298660   -6.196515   14.242757 H    395 MOH     0.0372 ****
2673 C1      6.381221   -5.256727   14.788643 C    395 MOH     0.1166 ****
2674 HC2     5.554456   -4.601081   14.515700 H    395 MOH     0.0372 ****
2675 HC3     7.338468   -4.794590   14.543985 H    395 MOH     0.0372 ****
2676 O1      6.340230   -5.614761   16.130025 O    395 MOH    -0.6497 ****
2677 HO1     6.564241   -4.871749   16.694296 H    395 MOH     0.4215 ****
2678 HC1    -5.719463  -12.226342   22.935928 H    396 MOH     0.0372 ****
2679 C1     -5.419818  -13.273499   22.921078 C    396 MOH     0.1166 ****
2680 HC2    -4.785888  -13.462110   22.054166 H    396 MOH     0.0372 ****
2681 HC3    -6.287576  -13.927513   22.841883 H    396 MOH     0.0372 ****
2682 O1     -4.714873  -13.584584   24.114675 O    396 MOH    -0.6497 ****
2683 HO1    -4.280706  -14.432924   23.995881 H    396 MOH     0.4215 ****
2684 HC1   -13.470390   -8.958723    8.888544 H    397 MOH     0.0372 ****
2685 C1    -14.010790   -8.089154    8.515192 C    397 MOH     0.1166 ****
2686 HC2   -14.454195   -8.418610    7.575447 H    397 MOH     0.0372 ****
2687 HC3   -13.287947   -7.286130    8.368821 H    397 MOH     0.0372 ****
2688 O1    -15.002100   -7.750716    9.508677 O    397 MOH    -0.6497 ****
2689 HO1   -15.637763   -8.464742    9.591408 H    397 MOH     0.4215 ****
2690 HC1   -15.026926  -15.730746    4.579436 H    398 MOH     0.0372 ****
2691 C1    -14.614121  -14.723189    4.542666 C    398 MOH     0.1166 ****
2692 HC2   -14.699569  -14.252479    5.522009 H    398 MOH     0.0372 ****
2693 HC3   -15.190894  -14.135311    3.828488 H    398 MOH     0.0372 ****
2694 O1    -13.274668  -14.778711    4.111331 O    398 MOH    -0.6497 ****
2695 HO1   -13.241182  -15.439256    3.415538 H    398 MOH     0.4215 ****
2696 HC1    -8.853320    2.681661   16.719752 H    399 MOH     0.0372 ****
2697 C1     -9.307695    2.979682   15.775057 C    399 MOH     0.1166 ****
2698 HC2   -10.388494    2.844960   15.823140 H    399 MOH     0.0372 ****
2699 HC3    -8.885074    2.355062   14.987340 H    399 MOH     0.0372 ****
2700 O1     -9.025948    4.337107   15.515549 O    399 MOH    -0.6497 ****
2701 HO1    -9.295570    4.531434   14.614695 H    399 MOH     0.4215 ****
2702 HC1    -7.812358    5.595329   19.843043 H    400 MOH     0.0372 ****
2703 C1     -8.154149    4.925802   19.053911 C    400 MOH     0.1166 ****
2704 HC2    -8.652402    4.049701   19.469690 H    400 MOH     0.0372 ****
2705 HC3    -7.281773    4.607776   18.483276 H    400 MOH     0.0372 ****
2706 O1     -8.935304    5.655749   18.131844 O    400 MOH    -0.6497 ****
2707 HO1    -8.908168    5.168709   17.305236 H    400 MOH     0.4215 ****
2708 HC1    -2.282497   -3.074232   16.802483 H    401 MOH     0.0372 ****
2709 C1     -1.799832   -4.040147   16.655405 C    401 MOH     0.1166 ****
2710 HC2    -2.572904   -4.794182   16.507620 H    401 MOH     0.0372 ****
2711 HC3    -1.235183   -4.282647   17.554845 H    401 MOH     0.0372 ****
2712 O1     -0.891660   -4.012387   15.532520 O    401 MOH    -0.6497 ****
2713 HO1    -0.180364   -3.408179   15.761622 H    401 MOH     0.4215 ****
2714 HC1    -7.589500  -11.316765    8.143254 H    402 MOH     0.0372 ****
2715 C1     -7.750581  -12.329629    8.511656 C    402 MOH     0.1166 ****
2716 HC2    -8.501714  -12.284722    9.299373 H    402 MOH     0.0372 ****
2717 HC3    -6.825666  -12.730121    8.926728 H    402 MOH     0.0372 ****
2718 O1     -8.202069  -13.176336    7.455239 O    402 MOH    -0.6497 ****
2719 HO1    -7.797346  -14.034474    7.605146 H    402 MOH     0.4215 ****
2720 HC1     1.416009  -17.199623   15.757380 H    403 MOH     0.0372 ****
2721 C1      1.249732  -17.112666   16.831475 C    403 MOH     0.1166 ****
2722 HC2     1.321901  -16.056528   17.090983 H    403 MOH     0.0372 ****
2723 HC3     2.036661  -17.666659   17.344127 H    403 MOH     0.0372 ****
2724 O1     -0.075864  -17.631550   17.065527 O    403 MOH    -0.6497 ****
2725 HO1    -0.387056  -17.282905   17.904156 H    403 MOH     0.4215 ****
2726 HC1     0.282093    0.197470   24.938454 H    404 MOH     0.0372 ****
2727 C1     -0.429202   -0.628416   24.927847 C    404 MOH     0.1166 ****
2728 HC2    -0.067204   -1.359589   24.204477 H    404 MOH     0.0372 ****
2729 HC3    -1.418203   -0.256094   24.657733 H    404 MOH     0.0372 ****
2730 O1     -0.492711   -1.202005   26.212661 O    404 MOH    -0.6497 ****
2731 HO1    -0.768684   -0.518189   26.827136 H    404 MOH     0.4215 ****
2732 HC1   -15.210524   -8.629675   18.956331 H    405 MOH     0.0372 ****
2733 C1    -15.601967   -9.398814   18.291650 C    405 MOH     0.1166 ****
2734 HC2   -15.102559   -9.364930   17.323621 H    405 MOH     0.0372 ****
2735 HC3   -16.673530   -9.236332   18.167199 H    405 MOH     0.0372 ****
2736 O1    -15.461094  -10.665609   18.876428 O    405 MOH    -0.6497 ****
2737 HO1   -15.907386  -10.666017   19.725663 H    405 MOH     0.4215 ****
2738 HC1    -4.855747   -7.270616   13.707477 H    406 MOH     0.0372 ****
2739 C1     -5.919226   -7.069758   13.575955 C    406 MOH     0.1166 ****
2740 HC2    -6.501195   -7.990766   13.602825 H    406 MOH     0.0372 ****
2741 HC3    -6.084348   -6.599048   12.606512 H    406 MOH     0.0372 ****
2742 O1     -6.369559   -6.179369   14.555298 O    406 MOH    -0.6497 ****
2743 HO1    -6.259285   -5.284896   14.225079 H    406 MOH     0.4215 ****
2744 HC1    -1.142807   -4.343068   10.910870 H    407 MOH     0.0372 ****
2745 C1     -1.546952   -3.997281    9.959811 C    407 MOH     0.1166 ****
2746 HC2    -2.479950   -4.520656    9.747679 H    407 MOH     0.0372 ****
2747 HC3    -0.825842   -4.142210    9.155831 H    407 MOH     0.0372 ****
2748 O1     -1.793481   -2.631283   10.113960 O    407 MOH    -0.6497 ****
2749 HO1    -0.969025   -2.175678   10.302051 H    407 MOH     0.4215 ****
2750 HC1    -8.254031  -18.653395   14.799250 H    408 MOH     0.0372 ****
2751 C1     -8.661062  -17.652778   14.654293 C    408 MOH     0.1166 ****
2752 HC2    -9.706644  -17.698502   14.348823 H    408 MOH     0.0372 ****
2753 HC3    -8.104497  -17.195132   13.837585 H    408 MOH     0.0372 ****
2754 O1     -8.506333  -16.828933   15.811120 O    408 MOH    -0.6497 ****
2755 HO1    -8.223431  -15.948750   15.550904 H    408 MOH     0.4215 ****
2756 HC1    -8.848124  -14.247988   17.021687 H    409 MOH     0.0372 ****
2757 C1     -8.759789  -13.262068   17.477770 C    409 MOH     0.1166 ****
2758 HC2    -9.360811  -13.230225   18.385696 H    409 MOH     0.0372 ****
2759 HC3    -9.111973  -12.526813   16.754400 H    409 MOH     0.0372 ****
2760 O1     -7.419759  -13.058352   17.785362 O    409 MOH    -0.6497 ****
2761 HO1    -6.934785  -13.524980   17.101590 H    409 MOH     0.4215 ****
2762 HC1     1.096734   -2.455736    9.244219 H    410 MOH     0.0372 ****
2763 C1      1.517045   -1.572287    9.725052 C    410 MOH     0.1166 ****
2764 HC2     1.770502   -0.830499    8.967740 H    410 MOH     0.0372 ****
2765 HC3     2.403855   -1.855203   10.291444 H    410 MOH     0.0372 ****
2766 O1      0.511879   -1.075857   10.548124 O    410 MOH    -0.6497 ****
2767 HO1     0.868104   -0.879489   11.417158 H    410 MOH     0.4215 ****
2768 HC1    -6.884556  -19.085322   17.835567 H    411 MOH     0.0372 ****
2769 C1     -5.808375  -19.077157   17.665861 C    411 MOH     0.1166 ****
2770 HC2    -5.388064  -18.216978   18.185584 H    411 MOH     0.0372 ****
2771 HC3    -5.604570  -19.016736   16.596715 H    411 MOH     0.0372 ****
2772 O1     -5.214859  -20.221885   18.166493 O    411 MOH    -0.6497 ****
2773 HO1    -5.676739  -20.483164   18.965523 H    411 MOH     0.4215 ****
2774 HC1   -10.238383   -4.417369   10.434280 H    412 MOH     0.0372 ****
2775 C1    -10.820930   -5.290204   10.729850 C    412 MOH     0.1166 ****
2776 HC2   -10.484912   -6.205088   10.242654 H    412 MOH     0.0372 ****
2777 HC3   -11.841108   -5.110166   10.392560 H    412 MOH     0.0372 ****
2778 O1    -10.827858   -5.437173   12.132750 O    412 MOH    -0.6497 ****
2779 HO1   -11.014342   -4.575361   12.513881 H    412 MOH     0.4215 ****
2780 HC1   -11.069190   -7.431874   14.705205 H    413 MOH     0.0372 ****
2781 C1    -10.037466   -7.715607   14.499437 C    413 MOH     0.1166 ****
2782 HC2    -9.766688   -8.541493   15.156339 H    413 MOH     0.0372 ****
2783 HC3    -9.389101   -6.864817   14.710154 H    413 MOH     0.0372 ****
2784 O1     -9.899479   -8.034857   13.137549 O    413 MOH    -0.6497 ****
2785 HO1   -10.196237   -7.242039   12.685001 H    413 MOH     0.4215 ****
2786 HC1    -5.575125   -8.159373    9.018652 H    414 MOH     0.0372 ****
2787 C1     -5.560691   -7.451878    8.189216 C    414 MOH     0.1166 ****
2788 HC2    -6.551425   -7.020768    8.047794 H    414 MOH     0.0372 ****
2789 HC3    -5.221787   -7.945042    7.278462 H    414 MOH     0.0372 ****
2790 O1     -4.683696   -6.400231    8.496100 O    414 MOH    -0.6497 ****
2791 HO1    -4.487397   -6.393291    9.435845 H    414 MOH     0.4215 ****
2792 HC1     0.556335  -11.994049   22.348322 H    415 MOH     0.0372 ****
2793 C1      0.631390  -10.952199   22.038609 C    415 MOH     0.1166 ****
2794 HC2     1.670043  -10.727663   21.795365 H    415 MOH     0.0372 ****
2795 HC3     0.269391  -10.350849   22.873702 H    415 MOH     0.0372 ****
2796 O1     -0.256575  -10.794615   20.962393 O    415 MOH    -0.6497 ****
2797 HO1     0.110620  -11.315132   20.244679 H    415 MOH     0.4215 ****
2798 HC1   -11.778754   -3.677215   15.902336 H    416 MOH     0.0372 ****
2799 C1    -12.018354   -4.310000   16.756521 C    416 MOH     0.1166 ****
2800 HC2   -13.063936   -4.185484   17.037243 H    416 MOH     0.0372 ****
2801 HC3   -11.386156   -4.002589   17.590200 H    416 MOH     0.0372 ****
2802 O1    -11.716400   -5.660077   16.440445 O    416 MOH    -0.6497 ****
2803 HO1   -12.178858   -5.933195   15.644950 H    416 MOH     0.4215 ****
2804 HC1   -14.372211  -11.615603    6.802579 H    417 MOH     0.0372 ****
2805 C1    -13.584128  -11.581310    6.050218 C    417 MOH     0.1166 ****
2806 HC2   -14.004439  -11.189800    5.123201 H    417 MOH     0.0372 ****
2807 HC3   -13.186334  -12.579069    5.863542 H    417 MOH     0.0372 ****
2808 O1    -12.577807  -10.681122    6.400236 O    417 MOH    -0.6497 ****
2809 HO1   -11.750464  -11.146117    6.256693 H    417 MOH     0.4215 ****
2810 HC1   -11.168495  -12.236140    4.084461 H    418 MOH     0.0372 ****
2811 C1    -10.738369  -12.806055    4.908947 C    418 MOH     0.1166 ****
2812 HC2    -9.962987  -13.449862    4.493876 H    418 MOH     0.0372 ****
2813 HC3   -11.483728  -13.454761    5.369274 H    418 MOH     0.0372 ****
2814 O1    -10.169101  -11.911583    5.848692 O    418 MOH    -0.6497 ****
2815 HO1    -9.754564  -12.450879    6.525393 H    418 MOH     0.4215 ****
2816 HC1    -0.821223   -3.520856    6.369830 H    419 MOH     0.0372 ****
2817 C1     -0.077596   -4.041781    5.767375 C    419 MOH     0.1166 ****
2818 HC2     0.838082   -3.452270    5.719292 H    419 MOH     0.0372 ****
2819 HC3    -0.413614   -4.163030    4.737120 H    419 MOH     0.0372 ****
2820 O1      0.260731   -5.270608    6.351445 O    419 MOH    -0.6497 ****
2821 HO1    -0.443059   -5.542093    6.944708 H    419 MOH     0.4215 ****
2822 HC1     4.056232  -10.517823    8.783186 H    420 MOH     0.0372 ****
2823 C1      3.533730   -9.588650    9.010874 C    420 MOH     0.1166 ****
2824 HC2     2.501428   -9.801756    9.289474 H    420 MOH     0.0372 ****
2825 HC3     3.574144   -8.942393    8.134769 H    420 MOH     0.0372 ****
2826 O1      4.221354   -9.025267   10.077191 O    420 MOH    -0.6497 ****
2827 HO1     4.683812   -9.740518   10.519840 H    420 MOH     0.4215 ****
2828 HC1    -1.070638   -8.373295    8.402055 H    421 MOH     0.0372 ****
2829 C1     -2.007678   -8.117323    7.909202 C    421 MOH     0.1166 ****
2830 HC2    -2.845990   -8.449229    8.522263 H    421 MOH     0.0372 ****
2831 HC3    -2.026153   -8.616203    6.940465 H    421 MOH     0.0372 ****
2832 O1     -2.038277   -6.733770    7.692120 O    421 MOH    -0.6497 ****
2833 HO1    -2.954532   -6.492495    7.540092 H    421 MOH     0.4215 ****
2834 HC1   -11.017229   -9.075482   17.643940 H    422 MOH     0.0372 ****
2835 C1    -12.027015   -8.676215   17.735864 C    422 MOH     0.1166 ****
2836 HC2   -12.639583   -9.417594   18.249224 H    422 MOH     0.0372 ****
2837 HC3   -12.428273   -8.484338   16.740258 H    422 MOH     0.0372 ****
2838 O1    -11.958887   -7.487396   18.498125 O    422 MOH    -0.6497 ****
2839 HO1   -11.624601   -6.794190   17.923955 H    422 MOH     0.4215 ****
2840 HC1     1.440835  -15.731562   13.367359 H    423 MOH     0.0372 ****
2841 C1      2.312057  -15.228192   12.948045 C    423 MOH     0.1166 ****
2842 HC2     2.014144  -14.279015   12.504689 H    423 MOH     0.0372 ****
2843 HC3     2.750843  -15.839748   12.158913 H    423 MOH     0.0372 ****
2844 O1      3.280851  -14.953033   13.933751 O    423 MOH    -0.6497 ****
2845 HO1     3.710976  -15.791166   14.116892 H    423 MOH     0.4215 ****
2846 HC1   -15.273455   -1.839281   16.067799 H    424 MOH     0.0372 ****
2847 C1    -14.410894   -1.376327   15.588381 C    424 MOH     0.1166 ****
2848 HC2   -13.623965   -1.261610   16.334379 H    424 MOH     0.0372 ****
2849 HC3   -14.727859   -0.384284   15.265940 H    424 MOH     0.0372 ****
2850 O1    -14.028111   -2.163838   14.429433 O    424 MOH    -0.6497 ****
2851 HO1   -14.722086   -2.117706   13.768288 H    424 MOH     0.4215 ****
2852 HC1    -7.114341   -9.407796    1.619487 H    425 MOH     0.0372 ****
2853 C1     -6.190581   -9.219594    1.071479 C    425 MOH     0.1166 ****
2854 HC2    -5.599951  -10.134478    1.108956 H    425 MOH     0.0372 ****
2855 HC3    -5.668079   -8.396157    1.558675 H    425 MOH     0.0372 ****
2856 O1     -6.463667   -8.867275   -0.282631 O    425 MOH    -0.6497 ****
2857 HO1    -5.681935   -8.445147   -0.646083 H    425 MOH     0.4215 ****
2858 HC1    -9.527665  -14.145926   12.530144 H    426 MOH     0.0372 ****
2859 C1     -8.670877  -14.403939   11.906476 C    426 MOH     0.1166 ****
2860 HC2    -8.484971  -13.610712   11.183106 H    426 MOH     0.0372 ****
2861 HC3    -8.916829  -15.307800   11.349276 H    426 MOH     0.0372 ****
2862 O1     -7.507517  -14.594591   12.707628 O    426 MOH    -0.6497 ****
2863 HO1    -6.811232  -14.942418   12.146185 H    426 MOH     0.4215 ****
2864 HC1    -0.132444   -8.434124   18.900469 H    427 MOH     0.0372 ****
2865 C1     -0.754828   -7.539652   18.891277 C    427 MOH     0.1166 ****
2866 HC2    -0.310846   -6.752549   19.500803 H    427 MOH     0.0372 ****
2867 HC3    -1.726508   -7.817669   19.300692 H    427 MOH     0.0372 ****
2868 O1     -0.934384   -7.086904   17.569694 O    427 MOH    -0.6497 ****
2869 HO1    -0.077019   -6.811337   17.236647 H    427 MOH     0.4215 ****
2870 HC1    -4.148493   -2.787234    7.419884 H    428 MOH     0.0372 ****
2871 C1     -3.555554   -3.125671    6.570648 C    428 MOH     0.1166 ****
2872 HC2    -3.188359   -4.121389    6.818843 H    428 MOH     0.0372 ****
2873 HC3    -2.708581   -2.455736    6.418620 H    428 MOH     0.0372 ****
2874 O1     -4.359803   -3.176702    5.400387 O    428 MOH    -0.6497 ****
2875 HO1    -3.952771   -3.827042    4.822680 H    428 MOH     0.4215 ****
2876 HC1    -8.392017   -2.466350   13.082395 H    429 MOH     0.0372 ****
2877 C1     -8.210729   -3.504526   13.361702 C    429 MOH     0.1166 ****
2878 HC2    -8.870063   -4.141801   12.772682 H    429 MOH     0.0372 ****
2879 HC3    -8.435319   -3.659252   14.417412 H    429 MOH     0.0372 ****
2880 O1     -6.880514   -3.900118   13.120578 O    429 MOH    -0.6497 ****
2881 HO1    -6.700958   -3.791933   12.183662 H    429 MOH     0.4215 ****
2882 HC1    -4.503563   -8.254495   16.740965 H    430 MOH     0.0372 ****
2883 C1     -4.049766   -7.375128   17.197756 C    430 MOH     0.1166 ****
2884 HC2    -3.212608   -7.058327   16.575502 H    430 MOH     0.0372 ****
2885 HC3    -3.746080   -7.624159   18.214576 H    430 MOH     0.0372 ****
2886 O1     -5.000084   -6.377369   17.162401 O    430 MOH    -0.6497 ****
2887 HO1    -5.328019   -6.321847   16.261547 H    430 MOH     0.4215 ****
2888 HC1   -12.670760    3.218099   14.411755 H    431 MOH     0.0372 ****
2889 C1    -13.578355    3.154412   15.011382 C    431 MOH     0.1166 ****
2890 HC2   -14.189191    2.307705   14.698841 H    431 MOH     0.0372 ****
2891 HC3   -14.127415    4.086443   14.879153 H    431 MOH     0.0372 ****
2892 O1    -13.206541    2.971109   16.335793 O    431 MOH    -0.6497 ****
2893 HO1   -12.679420    2.168493   16.334379 H    431 MOH     0.4215 ****
2894 HC1     2.859385   -4.935436   22.117805 H    432 MOH     0.0372 ****
2895 C1      2.606505   -4.070766   22.731574 C    432 MOH     0.1166 ****
2896 HC2     3.414218   -3.887463   23.439388 H    432 MOH     0.0372 ****
2897 HC3     1.688518   -4.303468   23.270389 H    432 MOH     0.0372 ****
2898 O1      2.414248   -2.962372   21.875268 O    432 MOH    -0.6497 ****
2899 HO1     1.728933   -3.233449   21.260085 H    432 MOH     0.4215 ****
2900 HC1    -7.230966  -10.709292    4.115574 H    433 MOH     0.0372 ****
2901 C1     -6.950951  -11.617644    4.649439 C    433 MOH     0.1166 ****
2902 HC2    -6.142660  -12.113257    4.112038 H    433 MOH     0.0372 ****
2903 HC3    -7.781758  -12.323505    4.672774 H    433 MOH     0.0372 ****
2904 O1     -6.513319  -11.356365    5.968900 O    433 MOH    -0.6497 ****
2905 HO1    -6.860884  -12.061002    6.520444 H    433 MOH     0.4215 ****
2906 HC1     3.952886  -11.237157   17.518783 H    434 MOH     0.0372 ****
2907 C1      3.121502  -10.553749   17.349077 C    434 MOH     0.1166 ****
2908 HC2     2.199473  -11.013845   17.706166 H    434 MOH     0.0372 ****
2909 HC3     3.051065  -10.365546   16.277810 H    434 MOH     0.0372 ****
2910 O1      3.449437   -9.333087   18.001030 O    434 MOH    -0.6497 ****
2911 HO1     4.062583   -9.530270   18.713086 H    434 MOH     0.4215 ****
2912 HC1    -3.540543   -9.007713   26.001943 H    435 MOH     0.0372 ****
2913 C1     -4.431972   -8.381051   25.970123 C    435 MOH     0.1166 ****
2914 HC2    -5.320514   -9.011795   25.929818 H    435 MOH     0.0372 ****
2915 HC3    -4.422734   -7.762964   25.072097 H    435 MOH     0.0372 ****
2916 O1     -4.421580   -7.533528   27.091594 O    435 MOH    -0.6497 ****
2917 HO1    -3.665828   -6.953407   26.974922 H    435 MOH     0.4215 ****
2918 HC1     3.712709   -8.410854   13.541307 H    436 MOH     0.0372 ****
2919 C1      2.702923   -8.731737   13.285334 C    436 MOH     0.1166 ****
2920 HC2     2.005484   -8.301035   14.004462 H    436 MOH     0.0372 ****
2921 HC3     2.621517   -9.818086   13.319983 H    436 MOH     0.0372 ****
2922 O1      2.347852   -8.272458   12.013249 O    436 MOH    -0.6497 ****
2923 HO1     2.946565   -8.679889   11.383924 H    436 MOH     0.4215 ****
2924 HC1    -1.883548   -7.745817   24.588436 H    437 MOH     0.0372 ****
2925 C1     -1.658958   -6.679881   24.638641 C    437 MOH     0.1166 ****
2926 HC2    -2.018070   -6.132012   23.767485 H    437 MOH     0.0372 ****
2927 HC3    -0.572963   -6.633341   24.566516 H    437 MOH     0.0372 ****
2928 O1     -2.019802   -6.081797   25.905069 O    437 MOH    -0.6497 ****
2929 HO1    -2.091971   -5.133028   25.779204 H    437 MOH     0.4215 ****
2930 HC1    -2.796916  -21.196782   15.956077 H    438 MOH     0.0372 ****
2931 C1     -2.215524  -20.439481   16.482871 C    438 MOH     0.1166 ****
2932 HC2    -1.161860  -20.683614   16.345693 H    438 MOH     0.0372 ****
2933 HC3    -2.445309  -20.428867   17.547774 H    438 MOH     0.0372 ****
2934 O1     -2.343696  -19.179219   15.930621 O    438 MOH    -0.6497 ****
2935 HO1    -1.545220  -18.702793   16.171744 H    438 MOH     0.4215 ****
2936 HC1    -7.641462   -9.839723   21.038053 H    439 MOH     0.0372 ****
2937 C1     -7.296206  -10.682755   20.440548 C    439 MOH     0.1166 ****
2938 HC2    -6.556043  -11.214703   21.039467 H    439 MOH     0.0372 ****
2939 HC3    -6.854534  -10.296961   19.522016 H    439 MOH     0.0372 ****
2940 O1     -8.348716  -11.600498   20.106793 O    439 MOH    -0.6497 ****
2941 HO1    -8.069856  -12.113666   19.345239 H    439 MOH     0.4215 ****
2942 HC1    -2.576368  -21.519298   11.293415 H    440 MOH     0.0372 ****
2943 C1     -2.609277  -20.434174   11.194420 C    440 MOH     0.1166 ****
2944 HC2    -2.164140  -19.965097   12.071939 H    440 MOH     0.0372 ****
2945 HC3    -3.646775  -20.108392   11.119466 H    440 MOH     0.0372 ****
2946 O1     -1.923385  -20.056953   10.029108 O    440 MOH    -0.6497 ****
2947 HO1    -1.821771  -19.103693   10.069413 H    440 MOH     0.4215 ****
2948 HC1     5.856987  -12.702360   12.476404 H    441 MOH     0.0372 ****
2949 C1      4.951125  -12.377802   11.965166 C    441 MOH     0.1166 ****
2950 HC2     4.065470  -12.770537   12.464383 H    441 MOH     0.0372 ****
2951 HC3     4.958630  -12.726038   10.932083 H    441 MOH     0.0372 ****
2952 O1      4.858171  -10.985676   11.979308 O    441 MOH    -0.6497 ****
2953 HO1     5.128371  -10.700310   12.855414 H    441 MOH     0.4215 ****
2954 HC1     2.171183   -1.939302   18.564594 H    442 MOH     0.0372 ****
2955 C1      1.831701   -2.685171   17.845466 C    442 MOH     0.1166 ****
2956 HC2     1.325365   -3.522489   18.327006 H    442 MOH     0.0372 ****
2957 HC3     2.718511   -3.081989   17.350491 H    442 MOH     0.0372 ****
2958 O1      0.990502   -2.064634   16.890872 O    442 MOH    -0.6497 ****
2959 HO1     1.519932   -1.379593   16.475093 H    442 MOH     0.4215 ****
2960 HC1    -7.122424   -9.175503    9.583630 H    443 MOH     0.0372 ****
2961 C1     -7.752890   -9.489037   10.415188 C    443 MOH     0.1166 ****
2962 HC2    -8.729190   -9.801756   10.044664 H    443 MOH     0.0372 ****
2963 HC3    -7.923209   -8.661926   11.105324 H    443 MOH     0.0372 ****
2964 O1     -7.150714  -10.543135   11.110981 O    443 MOH    -0.6497 ****
2965 HO1    -7.801388  -10.897494   11.720507 H    443 MOH     0.4215 ****
2966 HC1    -4.460262   -4.443089   12.727427 H    444 MOH     0.0372 ****
2967 C1     -3.803815   -4.167521   13.552621 C    444 MOH     0.1166 ****
2968 HC2    -4.350565   -4.203447   14.495901 H    444 MOH     0.0372 ****
2969 HC3    -3.457404   -3.144859   13.402007 H    444 MOH     0.0372 ****
2970 O1     -2.684910   -5.039539   13.617675 O    444 MOH    -0.6497 ****
2971 HO1    -2.079847   -4.712941   14.288012 H    444 MOH     0.4215 ****
2972 HC1    -0.683814    0.271771   20.494995 H    445 MOH     0.0372 ****
2973 C1     -0.995583   -0.147092   21.452418 C    445 MOH     0.1166 ****
2974 HC2    -1.522704    0.599186   22.044973 H    445 MOH     0.0372 ****
2975 HC3    -0.102999   -0.480631   21.980626 H    445 MOH     0.0372 ****
2976 O1     -1.810224   -1.261201   21.225436 O    445 MOH    -0.6497 ****
2977 HO1    -2.496116   -1.019927   20.599647 H    445 MOH     0.4215 ****
2978 HC1    -8.004038    5.665956   12.775510 H    446 MOH     0.0372 ****
2979 C1     -8.911632    6.045627   12.305991 C    446 MOH     0.1166 ****
2980 HC2    -8.781151    6.025622   11.223411 H    446 MOH     0.0372 ****
2981 HC3    -9.054815    7.076453   12.627725 H    446 MOH     0.0372 ****
2982 O1    -10.051899    5.252400   12.680051 O    446 MOH    -0.6497 ****
2983 HO1   -10.824971    5.757403   12.417714 H    446 MOH     0.4215 ****
2984 HC1   -15.122189  -14.510900   12.780460 H    447 MOH     0.0372 ****
2985 C1    -14.478444  -13.726655   12.383773 C    447 MOH     0.1166 ****
2986 HC2   -14.444380  -12.925263   13.121286 H    447 MOH     0.0372 ****
2987 HC3   -14.877393  -13.286563   11.468777 H    447 MOH     0.0372 ****
2988 O1    -13.166704  -14.191241   12.153256 O    447 MOH    -0.6497 ****
2989 HO1   -12.724454  -13.404139   11.827987 H    447 MOH     0.4215 ****
2990 HC1    -8.352180   -7.370229   16.958754 H    448 MOH     0.0372 ****
2991 C1     -8.189367   -7.594357   18.013050 C    448 MOH     0.1166 ****
2992 HC2    -7.621832   -8.521081   18.104974 H    448 MOH     0.0372 ****
2993 HC3    -9.173172   -7.711933   18.467013 H    448 MOH     0.0372 ****
2994 O1     -7.496547   -6.517806   18.604899 O    448 MOH    -0.6497 ****
2995 HO1    -6.658234   -6.427175   18.146693 H    448 MOH     0.4215 ****
2996 HC1    -8.629885   -7.475149    7.622823 H    449 MOH     0.0372 ****
2997 C1     -8.763253   -8.497811    7.269977 C    449 MOH     0.1166 ****
2998 HC2    -9.762069   -8.575378    6.841470 H    449 MOH     0.0372 ****
2999 HC3    -8.689930   -9.214695    8.087392 H    449 MOH     0.0372 ****
3000 O1     -7.842957   -8.775011    6.258107 O    449 MOH    -0.6497 ****
3001 HO1    -7.726910   -9.722964    6.166183 H    449 MOH     0.4215 ****
3002 HC1    -6.442883  -16.749733    6.580548 H    450 MOH     0.0372 ****
3003 C1     -7.179582  -16.403947    7.305332 C    450 MOH     0.1166 ****
3004 HC2    -7.450359  -17.211870    7.986276 H    450 MOH     0.0372 ****
3005 HC3    -8.088331  -16.104293    6.784902 H    450 MOH     0.0372 ****
3006 O1     -6.739641  -15.322497    8.099413 O    450 MOH    -0.6497 ****
3007 HO1    -5.792209  -15.391083    8.235178 H    450 MOH     0.4215 ****
3008 HC1    -7.605666  -19.000406   12.342761 H    451 MOH     0.0372 ****
3009 C1     -6.570477  -18.696261   12.186490 C    451 MOH     0.1166 ****
3010 HC2    -5.981580  -19.598898   12.018906 H    451 MOH     0.0372 ****
3011 HC3    -6.197509  -18.139410   13.044918 H    451 MOH     0.0372 ****
3012 O1     -6.572787  -17.964680   11.009865 O    451 MOH    -0.6497 ****
3013 HO1    -5.935392  -17.255553   11.119466 H    451 MOH     0.4215 ****
3014 HC1     5.456884  -13.808304   16.913499 H    452 MOH     0.0372 ****
3015 C1      5.840822  -13.211445   16.086184 C    452 MOH     0.1166 ****
3016 HC2     6.528446  -13.828717   15.507771 H    452 MOH     0.0372 ****
3017 HC3     6.341962  -12.349633   16.528126 H    452 MOH     0.0372 ****
3018 O1      4.775610  -12.771762   15.299175 O    452 MOH    -0.6497 ****
3019 HO1     4.246180  -13.527838   15.037545 H    452 MOH     0.4215 ****
3020 HC1    -4.076901   -4.812145   21.513936 H    453 MOH     0.0372 ****
3021 C1     -4.013393   -5.735194   20.937644 C    453 MOH     0.1166 ****
3022 HC2    -2.981668   -5.939318   20.651973 H    453 MOH     0.0372 ****
3023 HC3    -4.630580   -5.623334   20.046689 H    453 MOH     0.0372 ****
3024 O1     -4.531276   -6.788475   21.702733 O    453 MOH    -0.6497 ****
3025 HO1    -4.281283   -7.613136   21.278469 H    453 MOH     0.4215 ****
3026 HC1   -16.127933   -5.504534   13.031483 H    454 MOH     0.0372 ****
3027 C1    -16.294210   -4.434107   13.150277 C    454 MOH     0.1166 ****
3028 HC2   -15.940872   -4.113224   14.130327 H    454 MOH     0.0372 ****
3029 HC3   -17.361154   -4.221001   13.078152 H    454 MOH     0.0372 ****
3030 O1    -15.607164   -3.719673   12.140528 O    454 MOH    -0.6497 ****
3031 HO1   -15.697808   -4.249579   11.345740 H    454 MOH     0.4215 ****
3032 HC1     5.348919   -8.351658   15.649192 H    455 MOH     0.0372 ****
3033 C1      5.989201   -9.226942   15.758087 C    455 MOH     0.1166 ****
3034 HC2     5.839090   -9.627842   16.760764 H    455 MOH     0.0372 ****
3035 HC3     7.027854   -8.914224   15.652021 H    455 MOH     0.0372 ****
3036 O1      5.609881  -10.168771   14.754702 O    455 MOH    -0.6497 ****
3037 HO1     5.538867  -11.042014   15.147147 H    455 MOH     0.4215 ****
3038 HC1   -13.649946   -5.953607   12.707628 H    456 MOH     0.0372 ****
3039 C1    -13.382633   -6.958306   13.036433 C    456 MOH     0.1166 ****
3040 HC2   -12.438088   -7.247754   12.576106 H    456 MOH     0.0372 ****
3041 HC3   -14.145313   -7.671924   12.726720 H    456 MOH     0.0372 ****
3042 O1    -13.215201   -6.950550   14.465495 O    456 MOH    -0.6497 ****
3043 HO1   -14.043699   -6.762755   14.912387 H    456 MOH     0.4215 ****
3044 HC1     3.484655   -6.138135   20.070024 H    457 MOH     0.0372 ****
3045 C1      4.343175   -5.776427   19.504339 C    457 MOH     0.1166 ****
3046 HC2     3.995033   -5.257136   18.611970 H    457 MOH     0.0372 ****
3047 HC3     4.972487   -6.617011   19.210889 H    457 MOH     0.0372 ****
3048 O1      5.092576   -4.886854   20.299834 O    457 MOH    -0.6497 ****
3049 HO1     5.260007   -5.305309   21.147655 H    457 MOH     0.4215 ****
3050 HC1    -2.490343   -7.069350    4.732171 H    458 MOH     0.0372 ****
3051 C1     -3.414680   -6.554140    4.470541 C    458 MOH     0.1166 ****
3052 HC2    -4.127708   -6.601089    5.294321 H    458 MOH     0.0372 ****
3053 HC3    -3.850580   -7.000356    3.577465 H    458 MOH     0.0372 ****
3054 O1     -3.176812   -5.204880    4.191234 O    458 MOH    -0.6497 ****
3055 HO1    -2.672208   -5.174670    3.375233 H    458 MOH     0.4215 ****
3056 HC1   -10.768391    0.123985   14.784401 H    459 MOH     0.0372 ****
3057 C1    -11.139050   -0.272832   15.729095 C    459 MOH     0.1166 ****
3058 HC2   -10.284571   -0.395715   16.394483 H    459 MOH     0.0372 ****
3059 HC3   -11.610745   -1.248546   15.613130 H    459 MOH     0.0372 ****
3060 O1    -11.994106    0.662465   16.291245 O    459 MOH    -0.6497 ****
3061 HO1   -11.809354    0.664098   17.233111 H    459 MOH     0.4215 ****
3062 HC1   -12.230819  -17.289029    5.271693 H    460 MOH     0.0372 ****
3063 C1    -11.716977  -16.979985    6.181740 C    460 MOH     0.1166 ****
3064 HC2   -10.633868  -17.006113    6.065774 H    460 MOH     0.0372 ****
3065 HC3   -12.020086  -17.619302    7.011883 H    460 MOH     0.0372 ****
3066 O1    -12.156341  -15.722581    6.464582 O    460 MOH    -0.6497 ****
3067 HO1   -12.488317  -15.360464    5.639389 H    460 MOH     0.4215 ****
3068 HC1   -11.480264   -4.550866   20.522572 H    461 MOH     0.0372 ****
3069 C1    -11.546659   -4.811328   21.578990 C    461 MOH     0.1166 ****
3070 HC2   -11.438695   -5.889512   21.702733 H    461 MOH     0.0372 ****
3071 HC3   -12.530464   -4.496569   21.927593 H    461 MOH     0.0372 ****
3072 O1    -10.562854   -4.092403   22.302360 O    461 MOH    -0.6497 ****
3073 HO1    -9.740130   -4.201405   21.819406 H    461 MOH     0.4215 ****
3074 HC1    -3.933719   -1.989924   25.371203 H    462 MOH     0.0372 ****
3075 C1     -3.496087   -2.893378   24.946232 C    462 MOH     0.1166 ****
3076 HC2    -3.252445   -2.698235   23.902543 H    462 MOH     0.0372 ****
3077 HC3    -4.201609   -3.719672   25.039570 H    462 MOH     0.0372 ****
3078 O1     -2.359862   -3.190991   25.693644 O    462 MOH    -0.6497 ****
3079 HO1    -1.732282   -2.465125   25.645561 H    462 MOH     0.4215 ****
3080 HC1    -7.153601   -9.187750   24.738343 H    463 MOH     0.0372 ****
3081 C1     -7.564097  -10.144276   25.061491 C    463 MOH     0.1166 ****
3082 HC2    -6.785252  -10.906884   25.082704 H    463 MOH     0.0372 ****
3083 HC3    -8.349293  -10.423109   24.359334 H    463 MOH     0.0372 ****
3084 O1     -8.159923   -9.999756   26.317312 O    463 MOH    -0.6497 ****
3085 HO1    -7.539271   -9.550683   26.895726 H    463 MOH     0.4215 ****
3086 HC1   -18.854181   -7.867067   11.106031 H    464 MOH     0.0372 ****
3087 C1    -18.295306   -7.234690   11.795460 C    464 MOH     0.1166 ****
3088 HC2   -18.250273   -6.234074   11.364832 H    464 MOH     0.0372 ****
3089 HC3   -17.282057   -7.629058   11.876070 H    464 MOH     0.0372 ****
3090 O1    -18.960414   -7.222443   13.083809 O    464 MOH    -0.6497 ****
3091 HO1   -18.493338   -7.840531   13.649494 H    464 MOH     0.4215 ****
3092 HC1   -10.379257  -14.080198    9.005217 H    465 MOH     0.0372 ****
3093 C1    -11.261448  -13.496811    9.266139 C    465 MOH     0.1166 ****
3094 HC2   -10.957184  -12.498236    9.577266 H    465 MOH     0.0372 ****
3095 HC3   -11.796652  -13.986709   10.079312 H    465 MOH     0.0372 ****
3096 O1    -12.082440  -13.441697    8.098706 O    465 MOH    -0.6497 ****
3097 HO1   -12.173084  -14.330454    7.745860 H    465 MOH     0.4215 ****
3098 HC1    -2.842526  -23.072683   14.456303 H    466 MOH     0.0372 ****
3099 C1     -2.004791  -22.844472   13.796573 C    466 MOH     0.1166 ****
3100 HC2    -1.647411  -21.843039   14.032039 H    466 MOH     0.0372 ****
3101 HC3    -2.355243  -22.889379   12.765611 H    466 MOH     0.0372 ****
3102 O1     -0.923992  -23.786301   14.000927 O    466 MOH    -0.6497 ****
3103 HO1    -0.090875  -23.398057   13.723034 H    466 MOH     0.4215 ****
3104 HC1    -8.648938  -12.217361   14.071637 H    467 MOH     0.0372 ****
3105 C1     -8.960707  -11.173878   14.036282 C    467 MOH     0.1166 ****
3106 HC2    -8.154726  -10.516598   14.364379 H    467 MOH     0.0372 ****
3107 HC3    -9.803639  -11.050587   14.715104 H    467 MOH     0.0372 ****
3108 O1     -9.413927  -10.827684   12.742276 O    467 MOH    -0.6497 ****
3109 HO1    -9.625237   -9.891978   12.771975 H    467 MOH     0.4215 ****
3110 HC1    -1.952830   -4.203855   21.569090 H    468 MOH     0.0372 ****
3111 C1     -1.027337   -3.904201   22.062651 C    468 MOH     0.1166 ****
3112 HC2    -0.583355   -4.758256   22.574596 H    468 MOH     0.0372 ****
3113 HC3    -1.273288   -3.152207   22.812184 H    468 MOH     0.0372 ****
3114 O1     -0.145146   -3.404913   21.036639 O    468 MOH    -0.6497 ****
3115 HO1    -0.335672   -2.466759   20.961686 H    468 MOH     0.4215 ****
3116 HC1   -12.923640  -13.046513   14.888345 H    469 MOH     0.0372 ****
3117 C1    -12.152300  -13.339635   15.601109 C    469 MOH     0.1166 ****
3118 HC2   -11.254520  -13.596015   15.038252 H    469 MOH     0.0372 ****
3119 HC3   -12.482544  -14.227984   16.139924 H    469 MOH     0.0372 ****
3120 O1    -11.891915  -12.262268   16.509741 O    469 MOH    -0.6497 ****
3121 HO1   -12.558177  -12.287171   17.200585 H    469 MOH     0.4215 ****
3122 HC1   -13.052966  -12.435774   20.771474 H    470 MOH     0.0372 ****
3123 C1    -12.569724  -12.586417   19.806273 C    470 MOH     0.1166 ****
3124 HC2   -12.114194  -13.576011   19.786474 H    470 MOH     0.0372 ****
3125 HC3   -11.809354  -11.817277   19.667680 H    470 MOH     0.0372 ****
3126 O1    -13.600871  -12.537019   18.819859 O    470 MOH    -0.6497 ****
3127 HO1   -14.113558  -11.736036   18.949967 H    470 MOH     0.4215 ****
3128 HC1   -17.353071  -11.008129   14.437918 H    471 MOH     0.0372 ****
3129 C1    -16.765328  -10.092428   14.499437 C    471 MOH     0.1166 ****
3130 HC2   -16.299407   -9.881772   13.536357 H    471 MOH     0.0372 ****
3131 HC3   -15.976668  -10.241031   15.236242 H    471 MOH     0.0372 ****
3132 O1    -17.547060   -8.967704   14.874910 O    471 MOH    -0.6497 ****
3133 HO1   -17.947164   -9.131820   15.731924 H    471 MOH     0.4215 ****
3134 HC1    -3.617908   -8.400647   11.987793 H    472 MOH     0.0372 ****
3135 C1     -2.836176   -7.727446   11.636361 C    472 MOH     0.1166 ****
3136 HC2    -2.276723   -8.162230   10.808339 H    472 MOH     0.0372 ****
3137 HC3    -2.150861   -7.522505   12.458019 H    472 MOH     0.0372 ****
3138 O1     -3.410062   -6.528013   11.190884 O    472 MOH    -0.6497 ****
3139 HO1    -3.214917   -5.884613   11.876778 H    472 MOH     0.4215 ****
3140 HC1     7.889722    5.038315   20.857034 H    473 MOH     0.0372 ****
3141 C1      7.950921    5.818069   21.615052 C    473 MOH     0.1166 ****
3142 HC2     8.311188    5.372262   22.542776 H    473 MOH     0.0372 ****
3143 HC3     6.957879    6.243464   21.760716 H    473 MOH     0.0372 ****
3144 O1      8.822143    6.840731   21.187253 O    473 MOH    -0.6497 ****
3145 HO1     9.708953    6.480656   21.120785 H    473 MOH     0.4215 ****
3146 HC1    14.148199    9.787467   15.076436 H    474 MOH     0.0372 ****
3147 C1     14.581789    9.980569   16.057193 C    474 MOH     0.1166 ****
3148 HC2    14.867578   11.031400   16.108105 H    474 MOH     0.0372 ****
3149 HC3    15.469754    9.361256   16.183765 H    474 MOH     0.0372 ****
3150 O1     13.627429    9.665809   17.064820 O    474 MOH    -0.6497 ****
3151 HO1    13.828347    8.774195   17.357562 H    474 MOH     0.4215 ****
3152 HC1    18.217941    8.176111   10.461150 H    475 MOH     0.0372 ****
3153 C1     18.023374    8.917490   11.236139 C    475 MOH     0.1166 ****
3154 HC2    16.959318    8.959540   11.468777 H    475 MOH     0.0372 ****
3155 HC3    18.324751    9.905859   10.888950 H    475 MOH     0.0372 ****
3156 O1     18.693100    8.587217   12.447413 O    475 MOH    -0.6497 ****
3157 HO1    18.475439    7.692745   12.719649 H    475 MOH     0.4215 ****
3158 HC1     9.035763    6.481472    4.467006 H    476 MOH     0.0372 ****
3159 C1      8.243638    5.949117    4.993093 C    476 MOH     0.1166 ****
3160 HC2     8.270773    6.206721    6.051632 H    476 MOH     0.0372 ****
3161 HC3     8.409338    4.881547    4.850965 H    476 MOH     0.0372 ****
3162 O1      7.015037    6.364713    4.437307 O    476 MOH    -0.6497 ****
3163 HO1     6.320484    6.005863    4.995214 H    476 MOH     0.4215 ****
3164 HC1     9.732047   14.372504    3.347656 H    477 MOH     0.0372 ****
3165 C1     10.269560   14.715024    2.463065 C    477 MOH     0.1166 ****
3166 HC2     9.941625   14.141027    1.596152 H    477 MOH     0.0372 ****
3167 HC3    11.328998   14.530496    2.641256 H    477 MOH     0.0372 ****
3168 O1     10.009175   16.095720    2.194364 O    477 MOH    -0.6497 ****
3169 HO1    10.268405   16.300660    1.293510 H    477 MOH     0.4215 ****
3170 HC1     0.393406    7.567413   21.313118 H    478 MOH     0.0372 ****
3171 C1     -0.626772    7.274699   21.561312 C    478 MOH     0.1166 ****
3172 HC2    -0.787852    7.332262   22.636821 H    478 MOH     0.0372 ****
3173 HC3    -0.835195    6.252445   21.244528 H    478 MOH     0.0372 ****
3174 O1     -1.513004    8.167130   20.960271 O    478 MOH    -0.6497 ****
3175 HO1    -1.061516    8.543535   20.200839 H    478 MOH     0.4215 ****
3176 HC1    13.100886   12.540285   11.989915 H    479 MOH     0.0372 ****
3177 C1     13.149383   11.452712   11.939003 C    479 MOH     0.1166 ****
3178 HC2    12.771219   11.097944   10.980873 H    479 MOH     0.0372 ****
3179 HC3    12.542588   11.006088   12.726720 H    479 MOH     0.0372 ****
3180 O1     14.485949   11.018336   12.012542 O    479 MOH    -0.6497 ****
3181 HO1    14.453617   10.058952   12.033755 H    479 MOH     0.4215 ****
3182 HC1    12.297792    6.958715    4.911776 H    480 MOH     0.0372 ****
3183 C1     12.496400    7.919323    5.386245 C    480 MOH     0.1166 ****
3184 HC2    13.561034    8.136511    5.302806 H    480 MOH     0.0372 ****
3185 HC3    12.267192    7.884214    6.451147 H    480 MOH     0.0372 ****
3186 O1     11.703121    8.915040    4.734999 O    480 MOH    -0.6497 ****
3187 HO1    11.750464    9.691120    5.298563 H    480 MOH     0.4215 ****
3188 HC1    -5.007705   10.354116   17.517368 H    481 MOH     0.0372 ****
3189 C1     -3.967320   10.381468   17.191392 C    481 MOH     0.1166 ****
3190 HC2    -3.383042    9.741743   17.853951 H    481 MOH     0.0372 ****
3191 HC3    -3.626106   11.415153   17.245132 H    481 MOH     0.0372 ****
3192 O1     -3.900348    9.899327   15.868395 O    481 MOH    -0.6497 ****
3193 HO1    -4.495018    9.146517   15.824555 H    481 MOH     0.4215 ****
3194 HC1    11.139050    1.491454    9.923749 H    482 MOH     0.0372 ****
3195 C1     11.186392    2.214870   10.738336 C    482 MOH     0.1166 ****
3196 HC2    10.393113    2.942368   10.567216 H    482 MOH     0.0372 ****
3197 HC3    12.147103    2.728446   10.691667 H    482 MOH     0.0372 ****
3198 O1     11.001063    1.573103   12.032341 O    482 MOH    -0.6497 ****
3199 HO1    10.809383    2.248754   12.687829 H    482 MOH     0.4215 ****
3200 HC1    -7.784760    9.271850   16.216999 H    483 MOH     0.0372 ****
3201 C1     -8.219505    8.386359   16.680154 C    483 MOH     0.1166 ****
3202 HC2    -8.631733    7.711525   15.929914 H    483 MOH     0.0372 ****
3203 HC3    -9.041652    8.672541   17.337056 H    483 MOH     0.0372 ****
3204 O1     -7.314220    7.683764   17.475649 O    483 MOH    -0.6497 ****
3205 HO1    -7.840763    6.966063   17.836273 H    483 MOH     0.4215 ****
3206 HC1    17.896934   10.205922   14.242757 H    484 MOH     0.0372 ****
3207 C1     17.979496   11.145709   14.788643 C    484 MOH     0.1166 ****
3208 HC2    17.152730   11.801356   14.515700 H    484 MOH     0.0372 ****
3209 HC3    18.936742   11.607846   14.543985 H    484 MOH     0.0372 ****
3210 O1     17.938504   10.787675   16.130025 O    484 MOH    -0.6497 ****
3211 HO1    18.162516   11.530687   16.694296 H    484 MOH     0.4215 ****
3212 HC1     5.878811    4.176094   22.935928 H    485 MOH     0.0372 ****
3213 C1      6.178456    3.128938   22.921078 C    485 MOH     0.1166 ****
3214 HC2     6.812387    2.940327   22.054166 H    485 MOH     0.0372 ****
3215 HC3     5.310698    2.474924   22.841883 H    485 MOH     0.0372 ****
3216 O1      6.883401    2.817852   24.114675 O    485 MOH    -0.6497 ****
3217 HO1     7.317568    1.969512   23.995881 H    485 MOH     0.4215 ****
3218 HC1    -3.428652    0.671691    4.579436 H    486 MOH     0.0372 ****
3219 C1     -3.015847    1.679248    4.542666 C    486 MOH     0.1166 ****
3220 HC2    -3.101295    2.149958    5.522009 H    486 MOH     0.0372 ****
3221 HC3    -3.592620    2.267125    3.828488 H    486 MOH     0.0372 ****
3222 O1     -1.676394    1.623726    4.111331 O    486 MOH    -0.6497 ****
3223 HO1    -1.642908    0.963180    3.415538 H    486 MOH     0.4215 ****
3224 HC1    12.684616   -1.171550   10.528325 H    487 MOH     0.0372 ****
3225 C1     12.004498   -1.740240   11.162600 C    487 MOH     0.1166 ****
3226 HC2    12.358991   -1.703089   12.192854 H    487 MOH     0.0372 ****
3227 HC3    11.949649   -2.776782   10.830967 H    487 MOH     0.0372 ****
3228 O1     10.771855   -1.117253   11.080576 O    487 MOH    -0.6497 ****
3229 HO1    10.874046   -0.224414   11.416451 H    487 MOH     0.4215 ****
3230 HC1     2.744954   19.084097   16.719752 H    488 MOH     0.0372 ****
3231 C1      2.290579   19.382118   15.775057 C    488 MOH     0.1166 ****
3232 HC2     1.209780   19.247396   15.823140 H    488 MOH     0.0372 ****
3233 HC3     2.713200   18.757499   14.987340 H    488 MOH     0.0372 ****
3234 O1      2.572326   20.739544   15.515549 O    488 MOH    -0.6497 ****
3235 HO1     2.302704   20.933870   14.614695 H    488 MOH     0.4215 ****
3236 HC1     3.785916   21.997765   19.843043 H    489 MOH     0.0372 ****
3237 C1      3.444125   21.328238   19.053911 C    489 MOH     0.1166 ****
3238 HC2     2.945872   20.452137   19.469690 H    489 MOH     0.0372 ****
3239 HC3     4.316501   21.010213   18.483276 H    489 MOH     0.0372 ****
3240 O1      2.662970   22.058186   18.131844 O    489 MOH    -0.6497 ****
3241 HO1     2.690106   21.571146   17.305236 H    489 MOH     0.4215 ****
3242 HC1     6.552579    5.291837   15.512014 H    490 MOH     0.0372 ****
3243 C1      6.412283    5.137519   14.442868 C    490 MOH     0.1166 ****
3244 HC2     6.215984    6.092004   13.953550 H    490 MOH     0.0372 ****
3245 HC3     5.578012    4.458602   14.266799 H    490 MOH     0.0372 ****
3246 O1      7.587768    4.583118   13.891325 O    490 MOH    -0.6497 ****
3247 HO1     8.234400    4.482281   14.593482 H    490 MOH     0.4215 ****
3248 HC1     9.315777   13.328205   16.802483 H    491 MOH     0.0372 ****
3249 C1      9.798442   12.362289   16.655405 C    491 MOH     0.1166 ****
3250 HC2     9.025370   11.608254   16.507620 H    491 MOH     0.0372 ****
3251 HC3    10.363091   12.119790   17.554845 H    491 MOH     0.0372 ****
3252 O1     10.706614   12.390050   15.532520 O    491 MOH    -0.6497 ****
3253 HO1    11.417910   12.994257   15.761622 H    491 MOH     0.4215 ****
3254 HC1    13.014283   -0.797186   15.757380 H    492 MOH     0.0372 ****
3255 C1     12.848006   -0.710229   16.831475 C    492 MOH     0.1166 ****
3256 HC2    12.920175    0.345909   17.090983 H    492 MOH     0.0372 ****
3257 HC3    13.634935   -1.264222   17.344127 H    492 MOH     0.0372 ****
3258 O1     11.522410   -1.229113   17.065527 O    492 MOH    -0.6497 ****
3259 HO1    11.211218   -0.880469   17.904156 H    492 MOH     0.4215 ****
3260 HC1     7.810048   18.129613    7.930415 H    493 MOH     0.0372 ****
3261 C1      7.229234   18.510917    8.770457 C    493 MOH     0.1166 ****
3262 HC2     7.526569   19.518065    9.062493 H    493 MOH     0.0372 ****
3263 HC3     7.437080   17.855678    9.616864 H    493 MOH     0.0372 ****
3264 O1      5.849944   18.467234    8.485493 O    493 MOH    -0.6497 ****
3265 HO1     5.444644   17.792400    9.034915 H    493 MOH     0.4215 ****
3266 HC1    -3.612250    7.772762   18.956331 H    494 MOH     0.0372 ****
3267 C1     -4.003693    7.003622   18.291650 C    494 MOH     0.1166 ****
3268 HC2    -3.504285    7.037507   17.323621 H    494 MOH     0.0372 ****
3269 HC3    -5.075255    7.166105   18.167199 H    494 MOH     0.0372 ****
3270 O1     -3.862820    5.736828   18.876428 O    494 MOH    -0.6497 ****
3271 HO1    -4.309112    5.736419   19.725663 H    494 MOH     0.4215 ****
3272 HC1    12.607829    5.340827   14.575804 H    495 MOH     0.0372 ****
3273 C1     12.591085    4.333678   14.157904 C    495 MOH     0.1166 ****
3274 HC2    13.092803    3.675174   14.865718 H    495 MOH     0.0372 ****
3275 HC3    13.142455    4.305101   13.217452 H    495 MOH     0.0372 ****
3276 O1     11.248169    3.898077   14.008705 O    495 MOH    -0.6497 ****
3277 HO1    10.756266    4.158948   14.791472 H    495 MOH     0.4215 ****
3278 HC1    10.455467   12.059369   10.910870 H    496 MOH     0.0372 ****
3279 C1     10.051322   12.405155    9.959811 C    496 MOH     0.1166 ****
3280 HC2     9.118324   11.881781    9.747679 H    496 MOH     0.0372 ****
3281 HC3    10.772432   12.260227    9.155831 H    496 MOH     0.0372 ****
3282 O1      9.804793   13.771154   10.113960 O    496 MOH    -0.6497 ****
3283 HO1    10.629249   14.226759   10.302051 H    496 MOH     0.4215 ****
3284 HC1     6.222912    0.803555   16.114469 H    497 MOH     0.0372 ****
3285 C1      6.037005    1.389392   15.214322 C    497 MOH     0.1166 ****
3286 HC2     6.054903    0.765588   14.320539 H    497 MOH     0.0372 ****
3287 HC3     6.784674    2.174861   15.105427 H    497 MOH     0.0372 ****
3288 O1      4.794547    1.977677   15.343722 O    497 MOH    -0.6497 ****
3289 HO1     4.496057    2.088313   14.437918 H    497 MOH     0.4215 ****
3290 HC1     7.407635    4.378586   17.533632 H    498 MOH     0.0372 ****
3291 C1      8.161654    3.624959   17.305944 C    498 MOH     0.1166 ****
3292 HC2     7.675525    2.735386   16.906428 H    498 MOH     0.0372 ****
3293 HC3     8.650670    3.335511   18.235789 H    498 MOH     0.0372 ****
3294 O1      9.095807    4.167113   16.361249 O    498 MOH    -0.6497 ****
3295 HO1     9.312313    5.064851   16.620757 H    498 MOH     0.4215 ****
3296 HC1     3.344244   -2.250958   14.799250 H    499 MOH     0.0372 ****
3297 C1      2.937212   -1.250342   14.654293 C    499 MOH     0.1166 ****
3298 HC2     1.891630   -1.296066   14.348823 H    499 MOH     0.0372 ****
3299 HC3     3.493777   -0.792696   13.837585 H    499 MOH     0.0372 ****
3300 O1      3.091941   -0.426497   15.811120 O    499 MOH    -0.6497 ****
3301 HO1     3.374843    0.453686   15.550904 H    499 MOH     0.4215 ****
3302 HC1     2.750150    2.154449   17.021687 H    500 MOH     0.0372 ****
3303 C1      2.838485    3.140368   17.477770 C    500 MOH     0.1166 ****
3304 HC2     2.237463    3.172212   18.385696 H    500 MOH     0.0372 ****
3305 HC3     2.486301    3.875624   16.754400 H    500 MOH     0.0372 ****
3306 O1      4.178515    3.344084   17.785362 O    500 MOH    -0.6497 ****
3307 HO1     4.663489    2.877457   17.101590 H    500 MOH     0.4215 ****
3308 HC1    12.695009   13.946701    9.244219 H    501 MOH     0.0372 ****
3309 C1     13.115320   14.830150    9.725052 C    501 MOH     0.1166 ****
3310 HC2    13.368776   15.571937    8.967740 H    501 MOH     0.0372 ****
3311 HC3    14.002130   14.547234   10.291444 H    501 MOH     0.0372 ****
3312 O1     12.110153   15.326580   10.548124 O    501 MOH    -0.6497 ****
3313 HO1    12.466378   15.522947   11.417158 H    501 MOH     0.4215 ****
3314 HC1     7.046213   16.254528   21.820113 H    502 MOH     0.0372 ****
3315 C1      7.003490   17.128588   21.170282 C    502 MOH     0.1166 ****
3316 HC2     7.804274   17.828734   21.408577 H    502 MOH     0.0372 ****
3317 HC3     6.064141   17.644614   21.365443 H    502 MOH     0.0372 ****
3318 O1      7.004067   16.774228   19.778696 O    502 MOH    -0.6497 ****
3319 HO1     7.113186   17.566638   19.247659 H    502 MOH     0.4215 ****
3320 HC1     4.713718   -2.682885   17.835567 H    503 MOH     0.0372 ****
3321 C1      5.789899   -2.674720   17.665861 C    503 MOH     0.1166 ****
3322 HC2     6.210210   -1.814541   18.185584 H    503 MOH     0.0372 ****
3323 HC3     5.993704   -2.614299   16.596715 H    503 MOH     0.0372 ****
3324 O1      6.383415   -3.819448   18.166493 O    503 MOH    -0.6497 ****
3325 HO1     5.921535   -4.080727   18.965523 H    503 MOH     0.4215 ****
3326 HC1     0.529084    8.970562   14.705205 H    504 MOH     0.0372 ****
3327 C1      1.560809    8.686830   14.499437 C    504 MOH     0.1166 ****
3328 HC2     1.831586    7.860943   15.156339 H    504 MOH     0.0372 ****
3329 HC3     2.209173    9.537619   14.710154 H    504 MOH     0.0372 ****
3330 O1      1.698795    8.367580   13.137549 O    504 MOH    -0.6497 ****
3331 HO1     1.402037    9.160398   12.685001 H    504 MOH     0.4215 ****
3332 HC1    12.154609    4.408388   22.348322 H    505 MOH     0.0372 ****
3333 C1     12.229664    5.450237   22.038609 C    505 MOH     0.1166 ****
3334 HC2    13.268317    5.674774   21.795365 H    505 MOH     0.0372 ****
3335 HC3    11.867666    6.051587   22.873702 H    505 MOH     0.0372 ****
3336 O1     11.341699    5.607821   20.962393 O    505 MOH    -0.6497 ****
3337 HO1    11.708894    5.087305   20.244679 H    505 MOH     0.4215 ****
3338 HC1     1.879506    0.495736   22.897037 H    506 MOH     0.0372 ****
3339 C1      2.871971    0.516557   22.446610 C    506 MOH     0.1166 ****
3340 HC2     3.395050    1.427767   22.736524 H    506 MOH     0.0372 ****
3341 HC3     2.811927    0.461035   21.360494 H    506 MOH     0.0372 ****
3342 O1      3.606938   -0.548155   22.894916 O    506 MOH    -0.6497 ****
3343 HO1     3.160069   -1.344239   22.599345 H    506 MOH     0.4215 ****
3344 HC1    -0.180480   12.725222   15.902336 H    507 MOH     0.0372 ****
3345 C1     -0.420080   12.092437   16.756521 C    507 MOH     0.1166 ****
3346 HC2    -1.465662   12.216953   17.037243 H    507 MOH     0.0372 ****
3347 HC3     0.212118   12.399848   17.590200 H    507 MOH     0.0372 ****
3348 O1     -0.118126   10.742360   16.440445 O    507 MOH    -0.6497 ****
3349 HO1    -0.580584   10.469242   15.644950 H    507 MOH     0.4215 ****
3350 HC1    10.777051   12.881581    6.369830 H    508 MOH     0.0372 ****
3351 C1     11.520678   12.360656    5.767375 C    508 MOH     0.1166 ****
3352 HC2    12.436356   12.950167    5.719292 H    508 MOH     0.0372 ****
3353 HC3    11.184660   12.239406    4.737120 H    508 MOH     0.0372 ****
3354 O1     11.859005   11.131829    6.351445 O    508 MOH    -0.6497 ****
3355 HO1    11.155215   10.860344    6.944708 H    508 MOH     0.4215 ****
3356 HC1    11.492965    7.204480   11.029664 H    509 MOH     0.0372 ****
3357 C1     11.453705    6.134870   10.824603 C    509 MOH     0.1166 ****
3358 HC2    10.675437    5.706617   11.456049 H    509 MOH     0.0372 ****
3359 HC3    12.422499    5.698452   11.068555 H    509 MOH     0.0372 ****
3360 O1     11.165030    5.842972    9.456351 O    509 MOH    -0.6497 ****
3361 HO1    11.594579    5.028517    9.184115 H    509 MOH     0.4215 ****
3362 HC1    15.654506    5.884613    8.783186 H    510 MOH     0.0372 ****
3363 C1     15.132004    6.813787    9.010874 C    510 MOH     0.1166 ****
3364 HC2    14.099702    6.600681    9.289474 H    510 MOH     0.0372 ****
3365 HC3    15.172419    7.460044    8.134769 H    510 MOH     0.0372 ****
3366 O1     15.819628    7.377169   10.077191 O    510 MOH    -0.6497 ****
3367 HO1    16.282086    6.661918   10.519840 H    510 MOH     0.4215 ****
3368 HC1     9.054815    1.098719   18.423172 H    511 MOH     0.0372 ****
3369 C1      9.305962    0.578202   19.347361 C    511 MOH     0.1166 ****
3370 HC2     8.639123   -0.275445   19.468276 H    511 MOH     0.0372 ****
3371 HC3     9.182987    1.248138   20.198010 H    511 MOH     0.0372 ****
3372 O1     10.645992    0.147500   19.250487 O    511 MOH    -0.6497 ****
3373 HO1    10.835941   -0.408126   20.009213 H    511 MOH     0.4215 ****
3374 HC1    10.527636    8.029142    8.402055 H    512 MOH     0.0372 ****
3375 C1      9.590596    8.285113    7.909202 C    512 MOH     0.1166 ****
3376 HC2     8.752284    7.953207    8.522263 H    512 MOH     0.0372 ****
3377 HC3     9.572121    7.786234    6.940465 H    512 MOH     0.0372 ****
3378 O1      9.559997    9.668667    7.692120 O    512 MOH    -0.6497 ****
3379 HO1     8.643742    9.909942    7.540092 H    512 MOH     0.4215 ****
3380 HC1     0.581045    7.326955   17.643940 H    513 MOH     0.0372 ****
3381 C1     -0.428740    7.726221   17.735864 C    513 MOH     0.1166 ****
3382 HC2    -1.041309    6.984843   18.249224 H    513 MOH     0.0372 ****
3383 HC3    -0.829999    7.918098   16.740258 H    513 MOH     0.0372 ****
3384 O1     -0.360613    8.915041   18.498125 O    513 MOH    -0.6497 ****
3385 HO1    -0.026327    9.608246   17.923955 H    513 MOH     0.4215 ****
3386 HC1    13.039109    0.670875   13.367359 H    514 MOH     0.0372 ****
3387 C1     13.910331    1.174245   12.948045 C    514 MOH     0.1166 ****
3388 HC2    13.612418    2.123422   12.504689 H    514 MOH     0.0372 ****
3389 HC3    14.349117    0.562689   12.158913 H    514 MOH     0.0372 ****
3390 O1     14.879125    1.449404   13.933751 O    514 MOH    -0.6497 ****
3391 HO1    15.309251    0.611270   14.116892 H    514 MOH     0.4215 ****
3392 HC1    -3.675181   14.563156   16.067799 H    515 MOH     0.0372 ****
3393 C1     -2.812620   15.026109   15.588381 C    515 MOH     0.1166 ****
3394 HC2    -2.025691   15.140827   16.334379 H    515 MOH     0.0372 ****
3395 HC3    -3.129585   16.018153   15.265940 H    515 MOH     0.0372 ****
3396 O1     -2.429836   14.238598   14.429433 O    515 MOH    -0.6497 ****
3397 HO1    -3.123811   14.284730   13.768288 H    515 MOH     0.4215 ****
3398 HC1     3.011112   10.000573   22.328523 H    516 MOH     0.0372 ****
3399 C1      3.619062   10.871366   22.080328 C    516 MOH     0.1166 ****
3400 HC2     4.668685   10.601922   21.965777 H    516 MOH     0.0372 ****
3401 HC3     3.562482   11.593558   22.895623 H    516 MOH     0.0372 ****
3402 O1      3.224155   11.433524   20.870469 O    516 MOH    -0.6497 ****
3403 HO1     3.505902   10.835032   20.174676 H    516 MOH     0.4215 ****
3404 HC1     2.070609    2.256511   12.530144 H    517 MOH     0.0372 ****
3405 C1      2.927397    1.998498   11.906476 C    517 MOH     0.1166 ****
3406 HC2     3.113303    2.791724   11.183106 H    517 MOH     0.0372 ****
3407 HC3     2.681445    1.094636   11.349276 H    517 MOH     0.0372 ****
3408 O1      4.090757    1.807846   12.707628 O    517 MOH    -0.6497 ****
3409 HO1     4.787042    1.460018   12.146185 H    517 MOH     0.4215 ****
3410 HC1    11.465830    7.968313   18.900469 H    518 MOH     0.0372 ****
3411 C1     10.843446    8.862785   18.891277 C    518 MOH     0.1166 ****
3412 HC2    11.287429    9.649887   19.500803 H    518 MOH     0.0372 ****
3413 HC3     9.871766    8.584768   19.300692 H    518 MOH     0.0372 ****
3414 O1     10.663890    9.315532   17.569694 O    518 MOH    -0.6497 ****
3415 HO1    11.521255    9.591100   17.236647 H    518 MOH     0.4215 ****
3416 HC1     7.449781   13.615203    7.419884 H    519 MOH     0.0372 ****
3417 C1      8.042720   13.276765    6.570648 C    519 MOH     0.1166 ****
3418 HC2     8.409915   12.281048    6.818843 H    519 MOH     0.0372 ****
3419 HC3     8.889693   13.946701    6.418620 H    519 MOH     0.0372 ****
3420 O1      7.238471   13.225734    5.400387 O    519 MOH    -0.6497 ****
3421 HO1     7.645503   12.575395    4.822680 H    519 MOH     0.4215 ****
3422 HC1    -1.072486   19.620535   14.411755 H    520 MOH     0.0372 ****
3423 C1     -1.980081   19.556849   15.011382 C    520 MOH     0.1166 ****
3424 HC2    -2.590917   18.710142   14.698841 H    520 MOH     0.0372 ****
3425 HC3    -2.529141   20.488880   14.879153 H    520 MOH     0.0372 ****
3426 O1     -1.608267   19.373545   16.335793 O    520 MOH    -0.6497 ****
3427 HO1    -1.081146   18.570929   16.334379 H    520 MOH     0.4215 ****
3428 HC1    10.717006    4.207529   18.583686 H    521 MOH     0.0372 ****
3429 C1     11.539731    3.516773   18.398424 C    521 MOH     0.1166 ****
3430 HC2    11.815127    3.638023   17.351198 H    521 MOH     0.0372 ****
3431 HC3    11.231426    2.476965   18.505197 H    521 MOH     0.0372 ****
3432 O1     12.629768    3.827450   19.283014 O    521 MOH    -0.6497 ****
3433 HO1    13.240604    3.086888   19.295742 H    521 MOH     0.4215 ****
3434 HC1     6.464244    5.549033    9.388469 H    522 MOH     0.0372 ****
3435 C1      7.391469    5.372262    9.932234 C    522 MOH     0.1166 ****
3436 HC2     7.325651    4.447579   10.505698 H    522 MOH     0.0372 ****
3437 HC3     7.614904    6.208763   10.594793 H    522 MOH     0.0372 ****
3438 O1      8.394904    5.270200    9.001682 O    522 MOH    -0.6497 ****
3439 HO1     9.204926    5.611087    9.388469 H    522 MOH     0.4215 ****
3440 HC1    15.551160    5.165280   17.518783 H    523 MOH     0.0372 ****
3441 C1     14.719776    5.848688   17.349077 C    523 MOH     0.1166 ****
3442 HC2    13.797748    5.388592   17.706166 H    523 MOH     0.0372 ****
3443 HC3    14.649339    6.036890   16.277810 H    523 MOH     0.0372 ****
3444 O1     15.047711    7.069350   18.001030 O    523 MOH    -0.6497 ****
3445 HO1    15.660857    6.872166   18.713086 H    523 MOH     0.4215 ****
3446 HC1     8.057731    7.394724   26.001943 H    524 MOH     0.0372 ****
3447 C1      7.166302    8.021385   25.970123 C    524 MOH     0.1166 ****
3448 HC2     6.277760    7.390641   25.929818 H    524 MOH     0.0372 ****
3449 HC3     7.175540    8.639473   25.072097 H    524 MOH     0.0372 ****
3450 O1      7.176695    8.868909   27.091594 O    524 MOH    -0.6497 ****
3451 HO1     7.932446    9.449029   26.974922 H    524 MOH     0.4215 ****
3452 HC1    15.310983    7.991583   13.541307 H    525 MOH     0.0372 ****
3453 C1     14.301197    7.670700   13.285334 C    525 MOH     0.1166 ****
3454 HC2    13.603758    8.101402   14.004462 H    525 MOH     0.0372 ****
3455 HC3    14.219791    6.584351   13.319983 H    525 MOH     0.0372 ****
3456 O1     13.946127    8.129979   12.013249 O    525 MOH    -0.6497 ****
3457 HO1    14.544839    7.722547   11.383924 H    525 MOH     0.4215 ****
3458 HC1     8.801358   -4.794345   15.956077 H    526 MOH     0.0372 ****
3459 C1      9.382750   -4.037045   16.482871 C    526 MOH     0.1166 ****
3460 HC2    10.436414   -4.281177   16.345693 H    526 MOH     0.0372 ****
3461 HC3     9.152965   -4.026430   17.547774 H    526 MOH     0.0372 ****
3462 O1      9.254578   -2.776782   15.930621 O    526 MOH    -0.6497 ****
3463 HO1    10.053054   -2.300357   16.171744 H    526 MOH     0.4215 ****
3464 HC1     3.956812    6.562714   21.038053 H    527 MOH     0.0372 ****
3465 C1      4.302068    5.719681   20.440548 C    527 MOH     0.1166 ****
3466 HC2     5.042231    5.187734   21.039467 H    527 MOH     0.0372 ****
3467 HC3     4.743741    6.105476   19.522016 H    527 MOH     0.0372 ****
3468 O1      3.249558    4.801939   20.106793 O    527 MOH    -0.6497 ****
3469 HO1     3.528418    4.288771   19.345239 H    527 MOH     0.4215 ****
3470 HC1    11.114223   15.100002   14.815513 H    528 MOH     0.0372 ****
3471 C1     10.621744   15.536420   13.946479 C    528 MOH     0.1166 ****
3472 HC2     9.679508   16.023868   14.196795 H    528 MOH     0.0372 ****
3473 HC3    10.369442   14.701960   13.291698 H    528 MOH     0.0372 ****
3474 O1     11.459479   16.461510   13.246443 O    528 MOH    -0.6497 ****
3475 HO1    10.918502   17.161248   12.874505 H    528 MOH     0.4215 ****
3476 HC1    17.455262    3.700077   12.476404 H    529 MOH     0.0372 ****
3477 C1     16.549399    4.024634   11.965166 C    529 MOH     0.1166 ****
3478 HC2    15.663744    3.631899   12.464383 H    529 MOH     0.0372 ****
3479 HC3    16.556905    3.676398   10.932083 H    529 MOH     0.0372 ****
3480 O1     16.456446    5.416761   11.979308 O    529 MOH    -0.6497 ****
3481 HO1    16.726645    5.702126   12.855414 H    529 MOH     0.4215 ****
3482 HC1     9.989545    8.263884   14.461253 H    530 MOH     0.0372 ****
3483 C1     10.652921    7.442081   14.730661 C    530 MOH     0.1166 ****
3484 HC2    11.669057    7.828284   14.808442 H    530 MOH     0.0372 ****
3485 HC3    10.639064    6.659469   13.971935 H    530 MOH     0.0372 ****
3486 O1     10.274756    7.015053   16.017595 O    530 MOH    -0.6497 ****
3487 HO1    10.328450    7.784193   16.588937 H    530 MOH     0.4215 ****
3488 HC1    13.769457   14.463135   18.564594 H    531 MOH     0.0372 ****
3489 C1     13.429975   13.717265   17.845466 C    531 MOH     0.1166 ****
3490 HC2    12.923639   12.879948   18.327006 H    531 MOH     0.0372 ****
3491 HC3    14.316785   13.320448   17.350491 H    531 MOH     0.0372 ****
3492 O1     12.588776   14.337803   16.890872 O    531 MOH    -0.6497 ****
3493 HO1    13.118206   15.022843   16.475093 H    531 MOH     0.4215 ****
3494 HC1     4.475850    7.226934    9.583630 H    532 MOH     0.0372 ****
3495 C1      3.845384    6.913399   10.415188 C    532 MOH     0.1166 ****
3496 HC2     2.869084    6.600681   10.044664 H    532 MOH     0.0372 ****
3497 HC3     3.675065    7.740510   11.105324 H    532 MOH     0.0372 ****
3498 O1      4.447560    5.859302   11.110981 O    532 MOH    -0.6497 ****
3499 HO1     3.796886    5.504943   11.720507 H    532 MOH     0.4215 ****
3500 HC1    10.914460   16.674208   20.494995 H    533 MOH     0.0372 ****
3501 C1     10.602691   16.255345   21.452418 C    533 MOH     0.1166 ****
3502 HC2    10.075570   17.001623   22.044973 H    533 MOH     0.0372 ****
3503 HC3    11.495275   15.921806   21.980626 H    533 MOH     0.0372 ****
3504 O1      9.788050   15.141235   21.225436 O    533 MOH    -0.6497 ****
3505 HO1     9.102158   15.382510   20.599647 H    533 MOH     0.4215 ****
3506 HC1     3.594236   22.068392   12.775510 H    534 MOH     0.0372 ****
3507 C1      2.686642   22.448063   12.305991 C    534 MOH     0.1166 ****
3508 HC2     2.817123   22.428059   11.223411 H    534 MOH     0.0372 ****
3509 HC3     2.543459   23.478890   12.627725 H    534 MOH     0.0372 ****
3510 O1      1.546375   21.654837   12.680051 O    534 MOH    -0.6497 ****
3511 HO1     0.773303   22.159840   12.417714 H    534 MOH     0.4215 ****
3512 HC1     1.181489    2.966046   21.718290 H    535 MOH     0.0372 ****
3513 C1      0.788314    3.400831   22.636822 C    535 MOH     0.1166 ****
3514 HC2     0.604139    4.465542   22.495400 H    535 MOH     0.0372 ****
3515 HC3     1.487485    3.256719   23.460601 H    535 MOH     0.0372 ****
3516 O1     -0.376202    2.739877   22.965626 O    535 MOH    -0.6497 ****
3517 HO1    -0.800554    3.189358   23.700310 H    535 MOH     0.4215 ****
3518 HC1    17.055158    2.594132   16.913499 H    536 MOH     0.0372 ****
3519 C1     17.439096    3.190991   16.086184 C    536 MOH     0.1166 ****
3520 HC2    18.126720    2.573720   15.507771 H    536 MOH     0.0372 ****
3521 HC3    17.940236    4.052803   16.528126 H    536 MOH     0.0372 ****
3522 O1     16.373884    3.630675   15.299175 O    536 MOH    -0.6497 ****
3523 HO1    15.844454    2.874599   15.037545 H    536 MOH     0.4215 ****
3524 HC1     7.521373   11.590292   21.513936 H    537 MOH     0.0372 ****
3525 C1      7.584881   10.667242   20.937644 C    537 MOH     0.1166 ****
3526 HC2     8.616606   10.463118   20.651973 H    537 MOH     0.0372 ****
3527 HC3     6.967694   10.779102   20.046689 H    537 MOH     0.0372 ****
3528 O1      7.066998    9.613962   21.702733 O    537 MOH    -0.6497 ****
3529 HO1     7.316991    8.789300   21.278469 H    537 MOH     0.4215 ****
3530 HC1    -4.529659   10.897902   13.031483 H    538 MOH     0.0372 ****
3531 C1     -4.695936   11.968329   13.150277 C    538 MOH     0.1166 ****
3532 HC2    -4.342598   12.289213   14.130327 H    538 MOH     0.0372 ****
3533 HC3    -5.762880   12.181435   13.078152 H    538 MOH     0.0372 ****
3534 O1     -4.008889   12.682764   12.140528 O    538 MOH    -0.6497 ****
3535 HO1    -4.099533   12.152858   11.345740 H    538 MOH     0.4215 ****
3536 HC1    16.947193    8.050779   15.649192 H    539 MOH     0.0372 ****
3537 C1     17.587475    7.175495   15.758087 C    539 MOH     0.1166 ****
3538 HC2    17.437364    6.774595   16.760764 H    539 MOH     0.0372 ****
3539 HC3    18.626128    7.488213   15.652021 H    539 MOH     0.0372 ****
3540 O1     17.208156    6.233666   14.754702 O    539 MOH    -0.6497 ****
3541 HO1    17.137141    5.360423   15.147147 H    539 MOH     0.4215 ****
3542 HC1    -2.051672   10.448829   12.707628 H    540 MOH     0.0372 ****
3543 C1     -1.784359    9.444130   13.036433 C    540 MOH     0.1166 ****
3544 HC2    -0.839814    9.154682   12.576106 H    540 MOH     0.0372 ****
3545 HC3    -2.547039    8.730512   12.726720 H    540 MOH     0.0372 ****
3546 O1     -1.616927    9.451887   14.465495 O    540 MOH    -0.6497 ****
3547 HO1    -2.445425    9.639681   14.912387 H    540 MOH     0.4215 ****
3548 HC1    15.082929   10.264301   20.070024 H    541 MOH     0.0372 ****
3549 C1     15.941449   10.626009   19.504339 C    541 MOH     0.1166 ****
3550 HC2    15.593307   11.145301   18.611970 H    541 MOH     0.0372 ****
3551 HC3    16.570761    9.785426   19.210889 H    541 MOH     0.0372 ****
3552 O1     16.690850   11.515582   20.299834 O    541 MOH    -0.6497 ****
3553 HO1    16.858281   11.097128   21.147655 H    541 MOH     0.4215 ****
3554 HC1    15.881982   11.585393   10.138002 H    542 MOH     0.0372 ****
3555 C1     15.435113   11.999356    9.234320 C    542 MOH     0.1166 ****
3556 HC2    14.407429   12.318198    9.406147 H    542 MOH     0.0372 ****
3557 HC3    15.465713   11.226951    8.464987 H    542 MOH     0.0372 ****
3558 O1     16.245713   13.063660    8.846118 O    542 MOH    -0.6497 ****
3559 HO1    16.427578   13.609896    9.614036 H    542 MOH     0.4215 ****
3560 HC1     9.107931    9.333087    4.732171 H    543 MOH     0.0372 ****
3561 C1      8.183594    9.848296    4.470541 C    543 MOH     0.1166 ****
3562 HC2     7.470566    9.801347    5.294321 H    543 MOH     0.0372 ****
3563 HC3     7.747694    9.402081    3.577465 H    543 MOH     0.0372 ****
3564 O1      8.421462   11.197557    4.191234 O    543 MOH    -0.6497 ****
3565 HO1     8.926066   11.227767    3.375233 H    543 MOH     0.4215 ****
3566 HC1     0.829883   16.526422   14.784401 H    544 MOH     0.0372 ****
3567 C1      0.459224   16.129604   15.729095 C    544 MOH     0.1166 ****
3568 HC2     1.313703   16.006722   16.394483 H    544 MOH     0.0372 ****
3569 HC3    -0.012471   15.153891   15.613130 H    544 MOH     0.0372 ****
3570 O1     -0.395831   17.064901   16.291245 O    544 MOH    -0.6497 ****
3571 HO1    -0.211079   17.066534   17.233111 H    544 MOH     0.4215 ****
3572 HC1     0.713836    3.471866   26.936031 H    545 MOH     0.0372 ****
3573 C1      1.608151    3.029325   27.375851 C    545 MOH     0.1166 ****
3574 HC2     1.673969    3.302443   28.428733 H    545 MOH     0.0372 ****
3575 HC3     2.498425    3.399198   26.866734 H    545 MOH     0.0372 ****
3576 O1      1.556767    1.616786   27.259886 O    545 MOH    -0.6497 ****
3577 HO1     2.462052    1.308558   27.348274 H    545 MOH     0.4215 ****
3578 HC1    -0.632545   -0.886593    5.271693 H    546 MOH     0.0372 ****
3579 C1     -0.118703   -0.577549    6.181740 C    546 MOH     0.1166 ****
3580 HC2     0.964406   -0.603677    6.065774 H    546 MOH     0.0372 ****
3581 HC3    -0.421812   -1.216866    7.011883 H    546 MOH     0.0372 ****
3582 O1     -0.558067    0.679856    6.464582 O    546 MOH    -0.6497 ****
3583 HO1    -0.890043    1.041972    5.639389 H    546 MOH     0.4215 ****
3584 HC1     0.118010   11.851570   20.522572 H    547 MOH     0.0372 ****
3585 C1      0.051615   11.591108   21.578990 C    547 MOH     0.1166 ****
3586 HC2     0.159579   10.512924   21.702733 H    547 MOH     0.0372 ****
3587 HC3    -0.932190   11.905868   21.927593 H    547 MOH     0.0372 ****
3588 O1      1.035420   12.310033   22.302360 O    547 MOH    -0.6497 ****
3589 HO1     1.858144   12.201031   21.819406 H    547 MOH     0.4215 ****
3590 HC1     4.444673    7.214686   24.738343 H    548 MOH     0.0372 ****
3591 C1      4.034177    6.258161   25.061491 C    548 MOH     0.1166 ****
3592 HC2     4.813023    5.495553   25.082704 H    548 MOH     0.0372 ****
3593 HC3     3.248981    5.979327   24.359334 H    548 MOH     0.0372 ****
3594 O1      3.438352    6.402681   26.317312 O    548 MOH    -0.6497 ****
3595 HO1     4.059003    6.851754   26.895726 H    548 MOH     0.4215 ****
3596 HC1     0.827574   17.940185   11.709193 H    549 MOH     0.0372 ****
3597 C1      1.393954   18.245147   12.589541 C    549 MOH     0.1166 ****
3598 HC2     1.779624   17.351491   13.080980 H    549 MOH     0.0372 ****
3599 HC3     0.739817   18.768929   13.286041 H    549 MOH     0.0372 ****
3600 O1      2.488610   19.059602   12.184369 O    549 MOH    -0.6497 ****
3601 HO1     2.137582   19.934887   12.007592 H    549 MOH     0.4215 ****
3602 HC1    -7.255907    8.535370   11.106031 H    550 MOH     0.0372 ****
3603 C1     -6.697032    9.167746   11.795460 C    550 MOH     0.1166 ****
3604 HC2    -6.651999   10.168363   11.364832 H    550 MOH     0.0372 ****
3605 HC3    -5.683783    8.773378   11.876070 H    550 MOH     0.0372 ****
3606 O1     -7.362140    9.179994   13.083809 O    550 MOH    -0.6497 ****
3607 HO1    -6.895063    8.561906   13.649494 H    550 MOH     0.4215 ****
3608 HC1     8.755748   -6.670246   14.456303 H    551 MOH     0.0372 ****
3609 C1      9.593483   -6.442035   13.796573 C    551 MOH     0.1166 ****
3610 HC2     9.950863   -5.440602   14.032039 H    551 MOH     0.0372 ****
3611 HC3     9.243031   -6.486943   12.765611 H    551 MOH     0.0372 ****
3612 O1     10.674283   -7.383864   14.000927 O    551 MOH    -0.6497 ****
3613 HO1    11.507399   -6.995620   13.723034 H    551 MOH     0.4215 ****
3614 HC1     2.949336    4.185076   14.071637 H    552 MOH     0.0372 ****
3615 C1      2.637567    5.228558   14.036282 C    552 MOH     0.1166 ****
3616 HC2     3.443548    5.885838   14.364379 H    552 MOH     0.0372 ****
3617 HC3     1.794635    5.351849   14.715104 H    552 MOH     0.0372 ****
3618 O1      2.184347    5.574753   12.742276 O    552 MOH    -0.6497 ****
3619 HO1     1.973037    6.510458   12.771975 H    552 MOH     0.4215 ****
3620 HC1     9.645444   12.198582   21.569090 H    553 MOH     0.0372 ****
3621 C1     10.570937   12.498236   22.062651 C    553 MOH     0.1166 ****
3622 HC2    11.014919   11.644180   22.574596 H    553 MOH     0.0372 ****
3623 HC3    10.324986   13.250229   22.812184 H    553 MOH     0.0372 ****
3624 O1     11.453128   12.997523   21.036639 O    553 MOH    -0.6497 ****
3625 HO1    11.262602   13.935678   20.961686 H    553 MOH     0.4215 ****
3626 HC1    -1.325365    3.355924   14.888345 H    554 MOH     0.0372 ****
3627 C1     -0.554025    3.062801   15.601109 C    554 MOH     0.1166 ****
3628 HC2     0.343754    2.806421   15.038252 H    554 MOH     0.0372 ****
3629 HC3    -0.884270    2.174453   16.139924 H    554 MOH     0.0372 ****
3630 O1     -0.293641    4.140168   16.509741 O    554 MOH    -0.6497 ****
3631 HO1    -0.959903    4.115265   17.200585 H    554 MOH     0.4215 ****
3632 HC1    -1.454692    3.966663   20.771474 H    555 MOH     0.0372 ****
3633 C1     -0.971450    3.816019   19.806273 C    555 MOH     0.1166 ****
3634 HC2    -0.515920    2.826426   19.786474 H    555 MOH     0.0372 ****
3635 HC3    -0.211079    4.585159   19.667680 H    555 MOH     0.0372 ****
3636 O1     -2.002597    3.865417   18.819859 O    555 MOH    -0.6497 ****
3637 HO1    -2.515284    4.666401   18.949967 H    555 MOH     0.4215 ****
3638 HC1    -5.754797    5.394307   14.437918 H    556 MOH     0.0372 ****
3639 C1     -5.167054    6.310008   14.499437 C    556 MOH     0.1166 ****
3640 HC2    -4.701132    6.520664   13.536357 H    556 MOH     0.0372 ****
3641 HC3    -4.378394    6.161406   15.236242 H    556 MOH     0.0372 ****
3642 O1     -5.948786    7.434732   14.874910 O    556 MOH    -0.6497 ****
3643 HO1    -6.348890    7.270616   15.731924 H    556 MOH     0.4215 ****
3644 HC1     8.062350   16.067551   16.917035 H    557 MOH     0.0372 ****
3645 C1      9.008050   16.410479   17.337056 C    557 MOH     0.1166 ****
3646 HC2     8.894312   17.384968   17.812939 H    557 MOH     0.0372 ****
3647 HC3     9.737820   16.523972   16.535197 H    557 MOH     0.0372 ****
3648 O1      9.449723   15.488246   18.309328 O    557 MOH    -0.6497 ****
3649 HO1    10.281107   15.100002   18.027192 H    557 MOH     0.4215 ****
3650 HC1     7.980366    8.001789   11.987793 H    558 MOH     0.0372 ****
3651 C1      8.762099    8.674990   11.636361 C    558 MOH     0.1166 ****
3652 HC2     9.321551    8.240206   10.808339 H    558 MOH     0.0372 ****
3653 HC3     9.447413    8.879931   12.458019 H    558 MOH     0.0372 ****
3654 O1      8.188212    9.874424   11.190884 O    558 MOH    -0.6497 ****
3655 HO1     8.383357   10.517823   11.876778 H    558 MOH     0.4215 ****
3656 HC1     7.378652   20.201718   16.350642 H    559 MOH     0.0372 ****
3657 C1      6.577867   19.807758   16.976432 C    559 MOH     0.1166 ****
3658 HC2     6.012064   19.077402   16.397311 H    559 MOH     0.0372 ****
3659 HC3     5.905254   20.584655   17.337763 H    559 MOH     0.0372 ****
3660 O1      7.074965   19.066787   18.020828 O    559 MOH    -0.6497 ****
3661 HO1     7.619407   19.662830   18.539845 H    559 MOH     0.4215 ****
3662 HC1    19.109255   15.336215    7.443925 H    560 MOH     0.0372 ****
3663 C1     18.922193   14.350295    7.868896 C    560 MOH     0.1166 ****
3664 HC2    18.530172   14.445008    8.881473 H    560 MOH     0.0372 ****
3665 HC3    19.879440   13.833861    7.937486 H    560 MOH     0.0372 ****
3666 O1     18.080994   13.546454    7.019661 O    560 MOH    -0.6497 ****
3667 HO1    17.365079   13.200259    7.557062 H    560 MOH     0.4215 ****
3668 HC1    21.739662   15.808150   14.080830 H    561 MOH     0.0372 ****
3669 C1     20.890957   16.242934   14.609038 C    561 MOH     0.1166 ****
3670 HC2    20.754703   17.270087   14.271041 H    561 MOH     0.0372 ****
3671 HC3    21.055502   16.230687   15.686669 H    561 MOH     0.0372 ****
3672 O1     19.725287   15.544829   14.275284 O    561 MOH    -0.6497 ****
3673 HO1    19.752423   14.744255   14.804907 H    561 MOH     0.4215 ****
3674 HC1    20.634037   22.883909    4.467006 H    562 MOH     0.0372 ****
3675 C1     19.841912   22.351553    4.993093 C    562 MOH     0.1166 ****
3676 HC2    19.869048   22.609158    6.051632 H    562 MOH     0.0372 ****
3677 HC3    20.007612   21.283984    4.850965 H    562 MOH     0.0372 ****
3678 O1     18.613311   22.767150    4.437307 O    562 MOH    -0.6497 ****
3679 HO1    17.918758   22.408300    4.995214 H    562 MOH     0.4215 ****
3680 HC1    15.788913   27.918019    6.416499 H    563 MOH     0.0372 ****
3681 C1     15.834524   27.463230    5.426550 C    563 MOH     0.1166 ****
3682 HC2    16.751933   26.884334    5.317655 H    563 MOH     0.0372 ****
3683 HC3    15.824132   28.240943    4.663581 H    563 MOH     0.0372 ****
3684 O1     14.731208   26.626729    5.209468 O    563 MOH    -0.6497 ****
3685 HO1    14.990438   25.739197    5.466855 H    563 MOH     0.4215 ****
3686 HC1     9.470969   22.074353   13.357459 H    564 MOH     0.0372 ****
3687 C1     10.385492   22.380539   12.849757 C    564 MOH     0.1166 ****
3688 HC2    10.980740   23.034961   13.486860 H    564 MOH     0.0372 ****
3689 HC3    10.110096   22.926775   11.947488 H    564 MOH     0.0372 ****
3690 O1     11.087550   21.241118   12.451655 O    564 MOH    -0.6497 ****
3691 HO1    12.022280   21.439935   12.541458 H    564 MOH     0.4215 ****
3692 HC1    22.737324   17.893890    9.923749 H    565 MOH     0.0372 ****
3693 C1     22.784666   18.617306   10.738336 C    565 MOH     0.1166 ****
3694 HC2    21.991387   19.344804   10.567216 H    565 MOH     0.0372 ****
3695 HC3    23.745377   19.130882   10.691667 H    565 MOH     0.0372 ****
3696 O1     22.599337   17.975540   12.032341 O    565 MOH    -0.6497 ****
3697 HO1    22.407657   18.651191   12.687829 H    565 MOH     0.4215 ****
3698 HC1     6.416786   21.736731    8.501757 H    566 MOH     0.0372 ****
3699 C1      6.459510   21.978414    9.563831 C    566 MOH     0.1166 ****
3700 HC2     7.496431   21.916360    9.894757 H    566 MOH     0.0372 ****
3701 HC3     5.861953   21.276635   10.145780 H    566 MOH     0.0372 ****
3702 O1      6.025920   23.272153    9.833239 O    566 MOH    -0.6497 ****
3703 HO1     5.256312   23.463621    9.292302 H    566 MOH     0.4215 ****
3704 HC1     3.813514   25.674286   16.216999 H    567 MOH     0.0372 ****
3705 C1      3.378769   24.788795   16.680154 C    567 MOH     0.1166 ****
3706 HC2     2.966541   24.113961   15.929914 H    567 MOH     0.0372 ****
3707 HC3     2.556622   25.074978   17.337056 H    567 MOH     0.0372 ****
3708 O1      4.284054   24.086200   17.475649 O    567 MOH    -0.6497 ****
3709 HO1     3.757511   23.368500   17.836273 H    567 MOH     0.4215 ****
3710 HC1     9.726158   23.846150    8.888544 H    568 MOH     0.0372 ****
3711 C1      9.185758   24.715719    8.515192 C    568 MOH     0.1166 ****
3712 HC2     8.742353   24.386263    7.575447 H    568 MOH     0.0372 ****
3713 HC3     9.908601   25.518743    8.368821 H    568 MOH     0.0372 ****
3714 O1      8.194448   25.054157    9.508677 O    568 MOH    -0.6497 ****
3715 HO1     7.558785   24.340131    9.591408 H    568 MOH     0.4215 ****
3716 HC1     8.169622   17.074127    4.579436 H    569 MOH     0.0372 ****
3717 C1      8.582427   18.081684    4.542666 C    569 MOH     0.1166 ****
3718 HC2     8.496979   18.552395    5.522009 H    569 MOH     0.0372 ****
3719 HC3     8.005654   18.669562    3.828488 H    569 MOH     0.0372 ****
3720 O1      9.921880   18.026162    4.111331 O    569 MOH    -0.6497 ****
3721 HO1     9.955366   17.365617    3.415538 H    569 MOH     0.4215 ****
3722 HC1    24.282890   15.230886   10.528325 H    570 MOH     0.0372 ****
3723 C1     23.602772   14.662197   11.162600 C    570 MOH     0.1166 ****
3724 HC2    23.957265   14.699347   12.192854 H    570 MOH     0.0372 ****
3725 HC3    23.547923   13.625654   10.830967 H    570 MOH     0.0372 ****
3726 O1     22.370129   15.285183   11.080576 O    570 MOH    -0.6497 ****
3727 HO1    22.472320   16.178023   11.416451 H    570 MOH     0.4215 ****
3728 HC1    18.150853   21.694273   15.512014 H    571 MOH     0.0372 ****
3729 C1     18.010557   21.539956   14.442868 C    571 MOH     0.1166 ****
3730 HC2    17.814258   22.494440   13.953550 H    571 MOH     0.0372 ****
3731 HC3    17.176286   20.861039   14.266799 H    571 MOH     0.0372 ****
3732 O1     19.186042   20.985554   13.891325 O    571 MOH    -0.6497 ****
3733 HO1    19.832674   20.884717   14.593482 H    571 MOH     0.4215 ****
3734 HC1    15.607048   21.488108    8.143254 H    572 MOH     0.0372 ****
3735 C1     15.445967   20.475244    8.511656 C    572 MOH     0.1166 ****
3736 HC2    14.694834   20.520151    9.299373 H    572 MOH     0.0372 ****
3737 HC3    16.370882   20.074752    8.926728 H    572 MOH     0.0372 ****
3738 O1     14.994479   19.628537    7.455239 O    572 MOH    -0.6497 ****
3739 HO1    15.399202   18.770399    7.605146 H    572 MOH     0.4215 ****
3740 HC1    17.821186   17.205992   16.114469 H    573 MOH     0.0372 ****
3741 C1     17.635279   17.791828   15.214322 C    573 MOH     0.1166 ****
3742 HC2    17.653177   17.168025   14.320539 H    573 MOH     0.0372 ****
3743 HC3    18.382948   18.577298   15.105427 H    573 MOH     0.0372 ****
3744 O1     16.392822   18.380114   15.343722 O    573 MOH    -0.6497 ****
3745 HO1    16.094331   18.490749   14.437918 H    573 MOH     0.4215 ****
3746 HC1    14.942518   14.151478   14.799250 H    574 MOH     0.0372 ****
3747 C1     14.535486   15.152095   14.654293 C    574 MOH     0.1166 ****
3748 HC2    13.489904   15.106371   14.348823 H    574 MOH     0.0372 ****
3749 HC3    15.092051   15.609741   13.837585 H    574 MOH     0.0372 ****
3750 O1     14.690216   15.975940   15.811120 O    574 MOH    -0.6497 ****
3751 HO1    14.973117   16.856123   15.550904 H    574 MOH     0.4215 ****
3752 HC1    14.348424   18.556885   17.021687 H    575 MOH     0.0372 ****
3753 C1     14.436759   19.542805   17.477770 C    575 MOH     0.1166 ****
3754 HC2    13.835737   19.574648   18.385696 H    575 MOH     0.0372 ****
3755 HC3    14.084575   20.278060   16.754400 H    575 MOH     0.0372 ****
3756 O1     15.776789   19.746521   17.785362 O    575 MOH    -0.6497 ****
3757 HO1    16.261763   19.279893   17.101590 H    575 MOH     0.4215 ****
3758 HC1    16.311992   13.719551   17.835567 H    576 MOH     0.0372 ****
3759 C1     17.388173   13.727716   17.665861 C    576 MOH     0.1166 ****
3760 HC2    17.808484   14.587895   18.185584 H    576 MOH     0.0372 ****
3761 HC3    17.591978   13.788137   16.596715 H    576 MOH     0.0372 ****
3762 O1     17.981689   12.582988   18.166493 O    576 MOH    -0.6497 ****
3763 HO1    17.519809   12.321709   18.965523 H    576 MOH     0.4215 ****
3764 HC1    12.958165   28.387504   10.434280 H    577 MOH     0.0372 ****
3765 C1     12.375618   27.514669   10.729850 C    577 MOH     0.1166 ****
3766 HC2    12.711636   26.599785   10.242654 H    577 MOH     0.0372 ****
3767 HC3    11.355440   27.694707   10.392560 H    577 MOH     0.0372 ****
3768 O1     12.368690   27.367700   12.132750 O    577 MOH    -0.6497 ****
3769 HO1    12.182206   28.229512   12.513881 H    577 MOH     0.4215 ****
3770 HC1    12.127358   25.372999   14.705205 H    578 MOH     0.0372 ****
3771 C1     13.159083   25.089266   14.499437 C    578 MOH     0.1166 ****
3772 HC2    13.429860   24.263380   15.156339 H    578 MOH     0.0372 ****
3773 HC3    13.807447   25.940056   14.710154 H    578 MOH     0.0372 ****
3774 O1     13.297069   24.770016   13.137549 O    578 MOH    -0.6497 ****
3775 HO1    13.000311   25.562834   12.685001 H    578 MOH     0.4215 ****
3776 HC1    17.621423   24.645500    9.018652 H    579 MOH     0.0372 ****
3777 C1     17.635857   25.352995    8.189216 C    579 MOH     0.1166 ****
3778 HC2    16.645124   25.784105    8.047794 H    579 MOH     0.0372 ****
3779 HC3    17.974761   24.859831    7.278462 H    579 MOH     0.0372 ****
3780 O1     18.512852   26.404642    8.496100 O    579 MOH    -0.6497 ****
3781 HO1    18.709151   26.411582    9.435845 H    579 MOH     0.4215 ****
3782 HC1     8.824337   21.189270    6.802579 H    580 MOH     0.0372 ****
3783 C1      9.612420   21.223563    6.050218 C    580 MOH     0.1166 ****
3784 HC2     9.192109   21.615073    5.123201 H    580 MOH     0.0372 ****
3785 HC3    10.010214   20.225804    5.863542 H    580 MOH     0.0372 ****
3786 O1     10.618742   22.123751    6.400236 O    580 MOH    -0.6497 ****
3787 HO1    11.446084   21.658756    6.256693 H    580 MOH     0.4215 ****
3788 HC1    12.028054   20.568733    4.084461 H    581 MOH     0.0372 ****
3789 C1     12.458180   19.998818    4.908947 C    581 MOH     0.1166 ****
3790 HC2    13.233561   19.355011    4.493876 H    581 MOH     0.0372 ****
3791 HC3    11.712820   19.350112    5.369274 H    581 MOH     0.0372 ****
3792 O1     13.027447   20.893290    5.848692 O    581 MOH    -0.6497 ****
3793 HO1    13.441984   20.353994    6.525393 H    581 MOH     0.4215 ****
3794 HC1    23.091239   23.606917   11.029664 H    582 MOH     0.0372 ****
3795 C1     23.051980   22.537306   10.824603 C    582 MOH     0.1166 ****
3796 HC2    22.273711   22.109054   11.456049 H    582 MOH     0.0372 ****
3797 HC3    24.020773   22.100889   11.068555 H    582 MOH     0.0372 ****
3798 O1     22.763304   22.245409    9.456351 O    582 MOH    -0.6497 ****
3799 HO1    23.192853   21.430953    9.184115 H    582 MOH     0.4215 ****
3800 HC1    22.125910   24.431578    8.402055 H    583 MOH     0.0372 ****
3801 C1     21.188870   24.687550    7.909202 C    583 MOH     0.1166 ****
3802 HC2    20.350558   24.355644    8.522263 H    583 MOH     0.0372 ****
3803 HC3    21.170395   24.188670    6.940465 H    583 MOH     0.0372 ****
3804 O1     21.158271   26.071103    7.692120 O    583 MOH    -0.6497 ****
3805 HO1    20.242016   26.312378    7.540092 H    583 MOH     0.4215 ****
3806 HC1    18.796331   19.721618    6.694392 H    584 MOH     0.0372 ****
3807 C1     19.101749   18.741413    6.327404 C    584 MOH     0.1166 ****
3808 HC2    20.050913   18.821022    5.797781 H    584 MOH     0.0372 ****
3809 HC3    18.335028   18.349087    5.660602 H    584 MOH     0.0372 ****
3810 O1     19.255324   17.820814    7.401499 O    584 MOH    -0.6497 ****
3811 HO1    20.104606   17.386846    7.293312 H    584 MOH     0.4215 ****
3812 HC1    24.637383   17.073311   13.367359 H    585 MOH     0.0372 ****
3813 C1     25.508605   17.576681   12.948045 C    585 MOH     0.1166 ****
3814 HC2    25.210692   18.525858   12.504689 H    585 MOH     0.0372 ****
3815 HC3    25.947391   16.965125   12.158913 H    585 MOH     0.0372 ****
3816 O1     26.477399   17.851841   13.933751 O    585 MOH    -0.6497 ****
3817 HO1    26.907525   17.013707   14.116892 H    585 MOH     0.4215 ****
3818 HC1    16.082207   23.397077    1.619487 H    586 MOH     0.0372 ****
3819 C1     17.005968   23.585279    1.071479 C    586 MOH     0.1166 ****
3820 HC2    17.596597   22.670395    1.108956 H    586 MOH     0.0372 ****
3821 HC3    17.528470   24.408716    1.558675 H    586 MOH     0.0372 ****
3822 O1     16.732881   23.937598   -0.282631 O    586 MOH    -0.6497 ****
3823 HO1    17.514613   24.359726   -0.646083 H    586 MOH     0.4215 ****
3824 HC1    13.668883   18.658947   12.530144 H    587 MOH     0.0372 ****
3825 C1     14.525671   18.400934   11.906476 C    587 MOH     0.1166 ****
3826 HC2    14.711578   19.194161   11.183106 H    587 MOH     0.0372 ****
3827 HC3    14.279720   17.497073   11.349276 H    587 MOH     0.0372 ****
3828 O1     15.689032   18.210283   12.707628 O    587 MOH    -0.6497 ****
3829 HO1    16.385316   17.862455   12.146185 H    587 MOH     0.4215 ****
3830 HC1    19.723555   18.318877   11.713436 H    588 MOH     0.0372 ****
3831 C1     19.225302   17.543205   11.133608 C    588 MOH     0.1166 ****
3832 HC2    19.952186   16.797743   10.811168 H    588 MOH     0.0372 ****
3833 HC3    18.762844   18.017181   10.267403 H    588 MOH     0.0372 ****
3834 O1     18.250157   16.912461   11.930518 O    588 MOH    -0.6497 ****
3835 HO1    18.721853   16.543405   12.680051 H    588 MOH     0.4215 ****
3836 HC1    18.062519   21.951470    9.388469 H    589 MOH     0.0372 ****
3837 C1     18.989743   21.774698    9.932234 C    589 MOH     0.1166 ****
3838 HC2    18.923925   20.850016   10.505698 H    589 MOH     0.0372 ****
3839 HC3    19.213178   22.611199   10.594793 H    589 MOH     0.0372 ****
3840 O1     19.993178   21.672636    9.001682 O    589 MOH    -0.6497 ****
3841 HO1    20.803200   22.013524    9.388469 H    589 MOH     0.4215 ****
3842 HC1    15.965582   22.095581    4.115574 H    590 MOH     0.0372 ****
3843 C1     16.245597   21.187229    4.649439 C    590 MOH     0.1166 ****
3844 HC2    17.053888   20.691616    4.112038 H    590 MOH     0.0372 ****
3845 HC3    15.414790   20.481368    4.672774 H    590 MOH     0.0372 ****
3846 O1     16.683229   21.448508    5.968900 O    590 MOH    -0.6497 ****
3847 HO1    16.335664   20.743871    6.520444 H    590 MOH     0.4215 ****
3848 HC1    20.399632   11.608091   15.956077 H    591 MOH     0.0372 ****
3849 C1     20.981024   12.365392   16.482871 C    591 MOH     0.1166 ****
3850 HC2    22.034688   12.121259   16.345693 H    591 MOH     0.0372 ****
3851 HC3    20.751239   12.376006   17.547774 H    591 MOH     0.0372 ****
3852 O1     20.852852   13.625654   15.930621 O    591 MOH    -0.6497 ****
3853 HO1    21.651328   14.102080   16.171744 H    591 MOH     0.4215 ****
3854 HC1    20.620180   11.285575   11.293415 H    592 MOH     0.0372 ****
3855 C1     20.587271   12.370699   11.194420 C    592 MOH     0.1166 ****
3856 HC2    21.032408   12.839776   12.071939 H    592 MOH     0.0372 ****
3857 HC3    19.549773   12.696481   11.119466 H    592 MOH     0.0372 ****
3858 O1     21.273163   12.747920   10.029108 O    592 MOH    -0.6497 ****
3859 HO1    21.374777   13.701180   10.069413 H    592 MOH     0.4215 ****
3860 HC1    16.074124   23.629370    9.583630 H    593 MOH     0.0372 ****
3861 C1     15.443658   23.315836   10.415188 C    593 MOH     0.1166 ****
3862 HC2    14.467358   23.003117   10.044664 H    593 MOH     0.0372 ****
3863 HC3    15.273339   24.142947   11.105324 H    593 MOH     0.0372 ****
3864 O1     16.045834   22.261739   11.110981 O    593 MOH    -0.6497 ****
3865 HO1    15.395160   21.907379   11.720507 H    593 MOH     0.4215 ****
3866 HC1     8.074359   18.293973   12.780460 H    594 MOH     0.0372 ****
3867 C1      8.718104   19.078218   12.383773 C    594 MOH     0.1166 ****
3868 HC2     8.752168   19.879610   13.121286 H    594 MOH     0.0372 ****
3869 HC3     8.319155   19.518310   11.468777 H    594 MOH     0.0372 ****
3870 O1     10.029844   18.613632   12.153256 O    594 MOH    -0.6497 ****
3871 HO1    10.472095   19.400735   11.827987 H    594 MOH     0.4215 ****
3872 HC1    14.566663   25.329724    7.622823 H    595 MOH     0.0372 ****
3873 C1     14.433295   24.307062    7.269977 C    595 MOH     0.1166 ****
3874 HC2    13.434479   24.229495    6.841470 H    595 MOH     0.0372 ****
3875 HC3    14.506618   23.590178    8.087392 H    595 MOH     0.0372 ****
3876 O1     15.353591   24.029862    6.258107 O    595 MOH    -0.6497 ****
3877 HO1    15.469639   23.081909    6.166183 H    595 MOH     0.4215 ****
3878 HC1    16.753666   16.055140    6.580548 H    596 MOH     0.0372 ****
3879 C1     16.016967   16.400926    7.305332 C    596 MOH     0.1166 ****
3880 HC2    15.746189   15.593003    7.986276 H    596 MOH     0.0372 ****
3881 HC3    15.108217   16.700580    6.784902 H    596 MOH     0.0372 ****
3882 O1     16.456907   17.482376    8.099413 O    596 MOH    -0.6497 ****
3883 HO1    17.404339   17.413790    8.235178 H    596 MOH     0.4215 ****
3884 HC1    15.590882   13.804467   12.342761 H    597 MOH     0.0372 ****
3885 C1     16.626071   14.108612   12.186490 C    597 MOH     0.1166 ****
3886 HC2    17.214968   13.205975   12.018906 H    597 MOH     0.0372 ****
3887 HC3    16.999039   14.665463   13.044918 H    597 MOH     0.0372 ****
3888 O1     16.623762   14.840193   11.009865 O    597 MOH    -0.6497 ****
3889 HO1    17.261156   15.549320   11.119466 H    597 MOH     0.4215 ****
3890 HC1     7.068615   27.300339   13.031483 H    598 MOH     0.0372 ****
3891 C1      6.902338   28.370766   13.150277 C    598 MOH     0.1166 ****
3892 HC2     7.255676   28.691649   14.130327 H    598 MOH     0.0372 ****
3893 HC3     5.835395   28.583872   13.078152 H    598 MOH     0.0372 ****
3894 O1      7.589385   29.085200   12.140528 O    598 MOH    -0.6497 ****
3895 HO1     7.498741   28.555294   11.345740 H    598 MOH     0.4215 ****
3896 HC1     9.546602   26.851266   12.707628 H    599 MOH     0.0372 ****
3897 C1      9.813915   25.846567   13.036433 C    599 MOH     0.1166 ****
3898 HC2    10.758460   25.557119   12.576106 H    599 MOH     0.0372 ****
3899 HC3     9.051236   25.132949   12.726720 H    599 MOH     0.0372 ****
3900 O1      9.981347   25.854324   14.465495 O    599 MOH    -0.6497 ****
3901 HO1     9.152849   26.042118   14.912387 H    599 MOH     0.4215 ****
3902 HC1    10.965729   15.515844    5.271693 H    600 MOH     0.0372 ****
3903 C1     11.479571   15.824888    6.181740 C    600 MOH     0.1166 ****
3904 HC2    12.562680   15.798760    6.065774 H    600 MOH     0.0372 ****
3905 HC3    11.176462   15.185571    7.011883 H    600 MOH     0.0372 ****
3906 O1     11.040207   17.082292    6.464582 O    600 MOH    -0.6497 ****
3907 HO1    10.708231   17.444409    5.639389 H    600 MOH     0.4215 ****
3908 HC1     4.342367   24.937806   11.106031 H    601 MOH     0.0372 ****
3909 C1      4.901242   25.570183   11.795460 C    601 MOH     0.1166 ****
3910 HC2     4.946275   26.570799   11.364832 H    601 MOH     0.0372 ****
3911 HC3     5.914492   25.175815   11.876070 H    601 MOH     0.0372 ****
3912 O1      4.236134   25.582430   13.083809 O    601 MOH    -0.6497 ****
3913 HO1     4.703211   24.964342   13.649494 H    601 MOH     0.4215 ****
3914 HC1    12.817291   18.724675    9.005217 H    602 MOH     0.0372 ****
3915 C1     11.935100   19.308062    9.266139 C    602 MOH     0.1166 ****
3916 HC2    12.239364   20.306637    9.577266 H    602 MOH     0.0372 ****
3917 HC3    11.399896   18.818164   10.079312 H    602 MOH     0.0372 ****
3918 O1     11.114108   19.363176    8.098706 O    602 MOH    -0.6497 ****
3919 HO1    11.023464   18.474419    7.745860 H    602 MOH     0.4215 ****
3920 HC1    20.354022    9.732190   14.456303 H    603 MOH     0.0372 ****
3921 C1     21.191757    9.960401   13.796573 C    603 MOH     0.1166 ****
3922 HC2    21.549137   10.961834   14.032039 H    603 MOH     0.0372 ****
3923 HC3    20.841305    9.915494   12.765611 H    603 MOH     0.0372 ****
3924 O1     22.272557    9.018572   14.000927 O    603 MOH    -0.6497 ****
3925 HO1    23.105673    9.406816   13.723034 H    603 MOH     0.4215 ****
3926 HC1    14.547610   20.587512   14.071637 H    604 MOH     0.0372 ****
3927 C1     14.235841   21.630995   14.036282 C    604 MOH     0.1166 ****
3928 HC2    15.041822   22.288275   14.364379 H    604 MOH     0.0372 ****
3929 HC3    13.392910   21.754286   14.715104 H    604 MOH     0.0372 ****
3930 O1     13.782621   21.977189   12.742276 O    604 MOH    -0.6497 ****
3931 HO1    13.571311   22.912895   12.771975 H    604 MOH     0.4215 ****
3932 HC1    10.272909   19.758360   14.888345 H    605 MOH     0.0372 ****
3933 C1     11.044249   19.465238   15.601109 C    605 MOH     0.1166 ****
3934 HC2    11.942028   19.208858   15.038252 H    605 MOH     0.0372 ****
3935 HC3    10.714004   18.576889   16.139924 H    605 MOH     0.0372 ****
3936 O1     11.304634   20.542605   16.509741 O    605 MOH    -0.6497 ****
3937 HO1    10.638371   20.517702   17.200585 H    605 MOH     0.4215 ****
3938 HC1     5.843477   21.796744   14.437918 H    606 MOH     0.0372 ****
3939 C1      6.431220   22.712445   14.499437 C    606 MOH     0.1166 ****
3940 HC2     6.897142   22.923101   13.536357 H    606 MOH     0.0372 ****
3941 HC3     7.219880   22.563842   15.236242 H    606 MOH     0.0372 ****
3942 O1      5.649488   23.837169   14.874910 O    606 MOH    -0.6497 ****
3943 HO1     5.249384   23.673053   15.731924 H    606 MOH     0.4215 ****
3944 HC1    19.578640   24.404226   11.987793 H    607 MOH     0.0372 ****
3945 C1     20.360373   25.077427   11.636361 C    607 MOH     0.1166 ****
3946 HC2    20.919825   24.642643   10.808339 H    607 MOH     0.0372 ****
3947 HC3    21.045687   25.282368   12.458019 H    607 MOH     0.0372 ****
3948 O1     19.786486   26.276860   11.190884 O    607 MOH    -0.6497 ****
3949 HO1    19.981631   26.920260   11.876778 H    607 MOH     0.4215 ****
3950 HC1   -10.316326  -26.665839   -1.945604 H    608 MOH     0.0372 ****
3951 C1    -11.352669  -26.527035   -1.638720 C    608 MOH     0.1166 ****
3952 HC2   -11.916163  -26.162877   -2.497148 H    608 MOH     0.0372 ****
3953 HC3   -11.422529  -25.777083   -0.850296 H    608 MOH     0.0372 ****
3954 O1    -11.878058  -27.769743   -1.221527 O    608 MOH    -0.6497 ****
3955 HO1   -12.640738  -27.617466   -0.659377 H    608 MOH     0.4215 ****
3956 HC1    -9.266703  -28.117162    2.723422 H    609 MOH     0.0372 ****
3957 C1     -8.662794  -27.565619    3.443964 C    609 MOH     0.1166 ****
3958 HC2    -7.851040  -28.200853    3.797517 H    609 MOH     0.0372 ****
3959 HC3    -9.311159  -27.279845    4.272693 H    609 MOH     0.0372 ****
3960 O1     -8.158190  -26.441711    2.788476 O    609 MOH    -0.6497 ****
3961 HO1    -7.345281  -26.180024    3.227589 H    609 MOH     0.4215 ****
3962 HC1    -1.866227  -26.633588  -10.857271 H    610 MOH     0.0372 ****
3963 C1     -1.328714  -26.291068  -11.741861 C    610 MOH     0.1166 ****
3964 HC2    -1.656649  -26.865065  -12.608774 H    610 MOH     0.0372 ****
3965 HC3    -0.269276  -26.475596  -11.563671 H    610 MOH     0.0372 ****
3966 O1     -1.589099  -24.910372  -12.010562 O    610 MOH    -0.6497 ****
3967 HO1    -1.329868  -24.705431  -12.911416 H    610 MOH     0.4215 ****
3968 HC1    -7.407635  -29.490509   -7.788428 H    611 MOH     0.0372 ****
3969 C1     -7.362024  -29.945298   -8.778377 C    611 MOH     0.1166 ****
3970 HC2    -6.444615  -30.524194   -8.887271 H    611 MOH     0.0372 ****
3971 HC3    -7.372416  -29.167585   -9.541345 H    611 MOH     0.0372 ****
3972 O1     -8.465341  -30.781799   -8.995459 O    611 MOH    -0.6497 ****
3973 HO1    -8.206110  -31.669330   -8.738072 H    611 MOH     0.4215 ****
3974 HC1    -5.793941  -26.175941   -0.218849 H    612 MOH     0.0372 ****
3975 C1     -6.459626  -25.316987   -0.133997 C    612 MOH     0.1166 ****
3976 HC2    -7.501743  -25.637054   -0.141068 H    612 MOH     0.0372 ****
3977 HC3    -6.324526  -24.692367   -1.016466 H    612 MOH     0.0372 ****
3978 O1     -6.233882  -24.520086    1.069499 O    612 MOH    -0.6497 ****
3979 HO1    -6.306628  -25.087143    1.839538 H    612 MOH     0.4215 ****
3980 HC1    -8.853320  -21.921994    2.514825 H    613 MOH     0.0372 ****
3981 C1     -9.307695  -21.623973    1.570131 C    613 MOH     0.1166 ****
3982 HC2   -10.388494  -21.758695    1.618214 H    613 MOH     0.0372 ****
3983 HC3    -8.885074  -22.248593    0.782414 H    613 MOH     0.0372 ****
3984 O1     -9.025948  -20.266547    1.310622 O    613 MOH    -0.6497 ****
3985 HO1    -9.295570  -20.072221    0.409768 H    613 MOH     0.4215 ****
3986 HC1    -7.812357  -19.008326    5.638116 H    614 MOH     0.0372 ****
3987 C1     -8.154149  -19.677853    4.848985 C    614 MOH     0.1166 ****
3988 HC2    -8.652402  -20.553954    5.264764 H    614 MOH     0.0372 ****
3989 HC3    -7.281773  -19.995879    4.278350 H    614 MOH     0.0372 ****
3990 O1     -8.935304  -18.947905    3.926918 O    614 MOH    -0.6497 ****
3991 HO1    -8.908168  -19.434946    3.100310 H    614 MOH     0.4215 ****
3992 HC1    -2.282497  -27.677887    2.597557 H    615 MOH     0.0372 ****
3993 C1     -1.799832  -28.643802    2.450479 C    615 MOH     0.1166 ****
3994 HC2    -2.572904  -29.397837    2.302693 H    615 MOH     0.0372 ****
3995 HC3    -1.235183  -28.886302    3.349919 H    615 MOH     0.0372 ****
3996 O1     -0.891660  -28.616041    1.327593 O    615 MOH    -0.6497 ****
3997 HO1    -0.180364  -28.011834    1.556696 H    615 MOH     0.4215 ****
3998 HC1     0.282093  -24.406185   10.733528 H    616 MOH     0.0372 ****
3999 C1     -0.429202  -25.232071   10.722921 C    616 MOH     0.1166 ****
4000 HC2    -0.067204  -25.963244    9.999551 H    616 MOH     0.0372 ****
4001 HC3    -1.418203  -24.859749   10.452806 H    616 MOH     0.0372 ****
4002 O1     -0.492711  -25.805660   12.007734 O    616 MOH    -0.6497 ****
4003 HO1    -0.768684  -25.121844   12.622210 H    616 MOH     0.4215 ****
4004 HC1    -3.788226  -22.876479   -6.274512 H    617 MOH     0.0372 ****
4005 C1     -4.369040  -22.495175   -5.434469 C    617 MOH     0.1166 ****
4006 HC2    -4.071705  -21.488026   -5.142434 H    617 MOH     0.0372 ****
4007 HC3    -4.161194  -23.150413   -4.588062 H    617 MOH     0.0372 ****
4008 O1     -5.748330  -22.538857   -5.719433 O    617 MOH    -0.6497 ****
4009 HO1    -6.153630  -23.213692   -5.170011 H    617 MOH     0.4215 ****
4010 HC1    -4.855747  -31.874271   -0.497449 H    618 MOH     0.0372 ****
4011 C1     -5.919226  -31.673413   -0.628971 C    618 MOH     0.1166 ****
4012 HC2    -6.501195  -32.594421   -0.602101 H    618 MOH     0.0372 ****
4013 HC3    -6.084348  -31.202703   -1.598415 H    618 MOH     0.0372 ****
4014 O1     -6.369559  -30.783023    0.350372 O    618 MOH    -0.6497 ****
4015 HO1    -6.259285  -29.888551    0.020153 H    618 MOH     0.4215 ****
4016 HC1    -1.142807  -28.946723   -3.294057 H    619 MOH     0.0372 ****
4017 C1     -1.546952  -28.600936   -4.245115 C    619 MOH     0.1166 ****
4018 HC2    -2.479950  -29.124311   -4.457247 H    619 MOH     0.0372 ****
4019 HC3    -0.825842  -28.745864   -5.049096 H    619 MOH     0.0372 ****
4020 O1     -1.793481  -27.234938   -4.090966 O    619 MOH    -0.6497 ****
4021 HO1    -0.969025  -26.779332   -3.902876 H    619 MOH     0.4215 ****
4022 HC1    -5.945207  -28.274746   -5.757617 H    620 MOH     0.0372 ****
4023 C1     -6.182498  -28.561336   -4.732312 C    620 MOH     0.1166 ****
4024 HC2    -5.420395  -29.223923   -4.322897 H    620 MOH     0.0372 ****
4025 HC3    -7.135703  -29.090018   -4.751404 H    620 MOH     0.0372 ****
4026 O1     -6.284111  -27.434979   -3.894390 O    620 MOH    -0.6497 ****
4027 HO1    -5.510462  -26.878537   -4.013892 H    620 MOH     0.4215 ****
4028 HC1     1.096735  -27.059391   -4.960707 H    621 MOH     0.0372 ****
4029 C1      1.517046  -26.175941   -4.479875 C    621 MOH     0.1166 ****
4030 HC2     1.770502  -25.434154   -5.237186 H    621 MOH     0.0372 ****
4031 HC3     2.403856  -26.458858   -3.913482 H    621 MOH     0.0372 ****
4032 O1      0.511879  -25.679512   -3.656803 O    621 MOH    -0.6497 ****
4033 HO1     0.868104  -25.483144   -2.787768 H    621 MOH     0.4215 ****
4034 HC1    -4.552061  -24.751563    7.615187 H    622 MOH     0.0372 ****
4035 C1     -4.594784  -23.877503    6.965355 C    622 MOH     0.1166 ****
4036 HC2    -3.794000  -23.177358    7.203650 H    622 MOH     0.0372 ****
4037 HC3    -5.534133  -23.361478    7.160517 H    622 MOH     0.0372 ****
4038 O1     -4.594207  -24.231863    5.573769 O    622 MOH    -0.6497 ****
4039 HO1    -4.485088  -23.439453    5.042732 H    622 MOH     0.4215 ****
4040 HC1   -10.238383  -29.021024   -3.770647 H    623 MOH     0.0372 ****
4041 C1    -10.820930  -29.893859   -3.475076 C    623 MOH     0.1166 ****
4042 HC2   -10.484912  -30.808743   -3.962273 H    623 MOH     0.0372 ****
4043 HC3   -11.841108  -29.713821   -3.812366 H    623 MOH     0.0372 ****
4044 O1    -10.827858  -30.040828   -2.072176 O    623 MOH    -0.6497 ****
4045 HO1   -11.014342  -29.179016   -1.691046 H    623 MOH     0.4215 ****
4046 HC1   -11.069190  -32.035529    0.500278 H    624 MOH     0.0372 ****
4047 C1    -10.037465  -32.319262    0.294510 C    624 MOH     0.1166 ****
4048 HC2    -9.766688  -33.145148    0.951412 H    624 MOH     0.0372 ****
4049 HC3    -9.389101  -31.468472    0.505228 H    624 MOH     0.0372 ****
4050 O1     -9.899479  -32.638512   -1.067378 O    624 MOH    -0.6497 ****
4051 HO1   -10.196237  -31.845694   -1.519926 H    624 MOH     0.4215 ****
4052 HC1    -5.575125  -32.763028   -5.186275 H    625 MOH     0.0372 ****
4053 C1     -5.560691  -32.055533   -6.015711 C    625 MOH     0.1166 ****
4054 HC2    -6.551424  -31.624423   -6.157132 H    625 MOH     0.0372 ****
4055 HC3    -5.221787  -32.548697   -6.926464 H    625 MOH     0.0372 ****
4056 O1     -4.683696  -31.003886   -5.708826 O    625 MOH    -0.6497 ****
4057 HO1    -4.487397  -30.996946   -4.769082 H    625 MOH     0.4215 ****
4058 HC1   -11.778754  -28.280870    1.697410 H    626 MOH     0.0372 ****
4059 C1    -12.018354  -28.913654    2.551595 C    626 MOH     0.1166 ****
4060 HC2   -13.063936  -28.789139    2.832316 H    626 MOH     0.0372 ****
4061 HC3   -11.386156  -28.606243    3.385274 H    626 MOH     0.0372 ****
4062 O1    -11.716400  -30.263732    2.235518 O    626 MOH    -0.6497 ****
4063 HO1   -12.178858  -30.536850    1.440023 H    626 MOH     0.4215 ****
4064 HC1    -0.821223  -28.124511   -7.835097 H    627 MOH     0.0372 ****
4065 C1     -0.077596  -28.645435   -8.437551 C    627 MOH     0.1166 ****
4066 HC2     0.838082  -28.055925   -8.485635 H    627 MOH     0.0372 ****
4067 HC3    -0.413614  -28.766685   -9.467806 H    627 MOH     0.0372 ****
4068 O1      0.260731  -29.874263   -7.853481 O    627 MOH    -0.6497 ****
4069 HO1    -0.443059  -30.145748   -7.260219 H    627 MOH     0.4215 ****
4070 HC1   -15.273455  -26.442936    1.862873 H    628 MOH     0.0372 ****
4071 C1    -14.410894  -25.979982    1.383454 C    628 MOH     0.1166 ****
4072 HC2   -13.623965  -25.865264    2.129452 H    628 MOH     0.0372 ****
4073 HC3   -14.727859  -24.987939    1.061014 H    628 MOH     0.0372 ****
4074 O1    -14.028110  -26.767493    0.224506 O    628 MOH    -0.6497 ****
4075 HO1   -14.722085  -26.721361   -0.436638 H    628 MOH     0.4215 ****
4076 HC1    -8.587162  -31.005519    8.123596 H    629 MOH     0.0372 ****
4077 C1     -7.979212  -30.134725    7.875402 C    629 MOH     0.1166 ****
4078 HC2    -6.929589  -30.404169    7.760851 H    629 MOH     0.0372 ****
4079 HC3    -8.035792  -29.412534    8.690696 H    629 MOH     0.0372 ****
4080 O1     -8.374119  -29.572567    6.665542 O    629 MOH    -0.6497 ****
4081 HO1    -8.092372  -30.171059    5.969749 H    629 MOH     0.4215 ****
4082 HC1    -3.006494  -24.755646   -2.564323 H    630 MOH     0.0372 ****
4083 C1     -4.021476  -25.138991   -2.668267 C    630 MOH     0.1166 ****
4084 HC2    -4.742586  -24.321678   -2.647054 H    630 MOH     0.0372 ****
4085 HC3    -4.256457  -25.833829   -1.862166 H    630 MOH     0.0372 ****
4086 O1     -4.149070  -25.850976   -3.850550 O    630 MOH    -0.6497 ****
4087 HO1    -3.428537  -26.484169   -3.882370 H    630 MOH     0.4215 ****
4088 HC1    -4.148493  -27.390888   -6.785043 H    631 MOH     0.0372 ****
4089 C1     -3.555554  -27.729326   -7.634278 C    631 MOH     0.1166 ****
4090 HC2    -3.188359  -28.725044   -7.386084 H    631 MOH     0.0372 ****
4091 HC3    -2.708581  -27.059391   -7.786306 H    631 MOH     0.0372 ****
4092 O1     -4.359803  -27.780357   -8.804540 O    631 MOH    -0.6497 ****
4093 HO1    -3.952771  -28.430697   -9.382246 H    631 MOH     0.4215 ****
4094 HC1    -8.392017  -27.070005   -1.122532 H    632 MOH     0.0372 ****
4095 C1     -8.210729  -28.108181   -0.843225 C    632 MOH     0.1166 ****
4096 HC2    -8.870063  -28.745456   -1.432245 H    632 MOH     0.0372 ****
4097 HC3    -8.435318  -28.262907    0.212486 H    632 MOH     0.0372 ****
4098 O1     -6.880514  -28.503773   -1.084348 O    632 MOH    -0.6497 ****
4099 HO1    -6.700958  -28.395587   -2.021265 H    632 MOH     0.4215 ****
4100 HC1    -4.503563  -32.858149    2.536039 H    633 MOH     0.0372 ****
4101 C1     -4.049766  -31.978783    2.992830 C    633 MOH     0.1166 ****
4102 HC2    -3.212608  -31.661982    2.370576 H    633 MOH     0.0372 ****
4103 HC3    -3.746080  -32.227814    4.009649 H    633 MOH     0.0372 ****
4104 O1     -5.000084  -30.981024    2.957474 O    633 MOH    -0.6497 ****
4105 HO1    -5.328019  -30.925502    2.056620 H    633 MOH     0.4215 ****
4106 HC1   -12.670760  -21.385556    0.206829 H    634 MOH     0.0372 ****
4107 C1    -13.578355  -21.449243    0.806455 C    634 MOH     0.1166 ****
4108 HC2   -14.189191  -22.295950    0.493914 H    634 MOH     0.0372 ****
4109 HC3   -14.127415  -20.517212    0.674226 H    634 MOH     0.0372 ****
4110 O1    -13.206541  -21.632546    2.130866 O    634 MOH    -0.6497 ****
4111 HO1   -12.679420  -22.435162    2.129452 H    634 MOH     0.4215 ****
4112 HC1     2.859385  -29.539091    7.912879 H    635 MOH     0.0372 ****
4113 C1      2.606505  -28.674421    8.526647 C    635 MOH     0.1166 ****
4114 HC2     3.414218  -28.491117    9.234461 H    635 MOH     0.0372 ****
4115 HC3     1.688519  -28.907122    9.065463 H    635 MOH     0.0372 ****
4116 O1      2.414248  -27.566027    7.670341 O    635 MOH    -0.6497 ****
4117 HO1     1.728933  -27.837104    7.055158 H    635 MOH     0.4215 ****
4118 HC1    -0.484050  -25.906089    0.610587 H    636 MOH     0.0372 ****
4119 C1     -0.976530  -25.469672   -0.258447 C    636 MOH     0.1166 ****
4120 HC2    -1.918766  -24.982223   -0.008132 H    636 MOH     0.0372 ****
4121 HC3    -1.228832  -26.304131   -0.913228 H    636 MOH     0.0372 ****
4122 O1     -0.138795  -24.544581   -0.958483 O    636 MOH    -0.6497 ****
4123 HO1    -0.679772  -23.844844   -1.330421 H    636 MOH     0.4215 ****
4124 HC1     2.171183  -26.542957    4.359667 H    637 MOH     0.0372 ****
4125 C1      1.831701  -27.288826    3.640539 C    637 MOH     0.1166 ****
4126 HC2     1.325365  -28.126143    4.122079 H    637 MOH     0.0372 ****
4127 HC3     2.718511  -27.685644    3.145565 H    637 MOH     0.0372 ****
4128 O1      0.990502  -26.668289    2.685945 O    637 MOH    -0.6497 ****
4129 HO1     1.519932  -25.983248    2.270167 H    637 MOH     0.4215 ****
4130 HC1    -4.460262  -29.046743   -1.477499 H    638 MOH     0.0372 ****
4131 C1     -3.803815  -28.771176   -0.652306 C    638 MOH     0.1166 ****
4132 HC2    -4.350565  -28.807102    0.290975 H    638 MOH     0.0372 ****
4133 HC3    -3.457404  -27.748514   -0.802920 H    638 MOH     0.0372 ****
4134 O1     -2.684910  -29.643194   -0.587252 O    638 MOH    -0.6497 ****
4135 HO1    -2.079847  -29.316596    0.083085 H    638 MOH     0.4215 ****
4136 HC1    -0.683814  -24.331884    6.290069 H    639 MOH     0.0372 ****
4137 C1     -0.995583  -24.750747    7.247491 C    639 MOH     0.1166 ****
4138 HC2    -1.522704  -24.004469    7.840047 H    639 MOH     0.0372 ****
4139 HC3    -0.102999  -25.084285    7.775700 H    639 MOH     0.0372 ****
4140 O1     -1.810224  -25.864856    7.020510 O    639 MOH    -0.6497 ****
4141 HO1    -2.496116  -25.623581    6.394720 H    639 MOH     0.4215 ****
4142 HC1    -8.004038  -18.937699   -1.429416 H    640 MOH     0.0372 ****
4143 C1     -8.911632  -18.558028   -1.898935 C    640 MOH     0.1166 ****
4144 HC2    -8.781151  -18.578032   -2.981516 H    640 MOH     0.0372 ****
4145 HC3    -9.054815  -17.527201   -1.577202 H    640 MOH     0.0372 ****
4146 O1    -10.051899  -19.351255   -1.524876 O    640 MOH    -0.6497 ****
4147 HO1   -10.824971  -18.846252   -1.787212 H    640 MOH     0.4215 ****
4148 HC1    -5.846480  -27.407626    5.082330 H    641 MOH     0.0372 ****
4149 C1     -5.264511  -27.165127    4.192790 C    641 MOH     0.1166 ****
4150 HC2    -5.300884  -27.986931    3.477905 H    641 MOH     0.0372 ****
4151 HC3    -4.237405  -27.021832    4.530080 H    641 MOH     0.0372 ****
4152 O1     -5.730432  -25.920786    3.661045 O    641 MOH    -0.6497 ****
4153 HO1    -5.314740  -25.243502    4.199154 H    641 MOH     0.4215 ****
4154 HC1    -8.352180  -31.973884    2.753827 H    642 MOH     0.0372 ****
4155 C1     -8.189367  -32.198012    3.808124 C    642 MOH     0.1166 ****
4156 HC2    -7.621832  -33.124736    3.900048 H    642 MOH     0.0372 ****
4157 HC3    -9.173172  -32.315587    4.262086 H    642 MOH     0.0372 ****
4158 O1     -7.496547  -31.121461    4.399972 O    642 MOH    -0.6497 ****
4159 HO1    -6.658234  -31.030830    3.941767 H    642 MOH     0.4215 ****
4160 HC1    -5.494296  -24.798103   -7.272240 H    643 MOH     0.0372 ****
4161 C1     -6.341846  -25.462732   -7.102534 C    643 MOH     0.1166 ****
4162 HC2    -7.207294  -24.818924   -6.946263 H    643 MOH     0.0372 ****
4163 HC3    -6.109174  -26.064490   -6.224307 H    643 MOH     0.0372 ****
4164 O1     -6.475214  -26.164511   -8.318051 O    643 MOH    -0.6497 ****
4165 HO1    -5.629396  -26.570309   -8.523111 H    643 MOH     0.4215 ****
4166 HC1    -4.076901  -29.415800    7.309009 H    644 MOH     0.0372 ****
4167 C1     -4.013393  -30.338849    6.732717 C    644 MOH     0.1166 ****
4168 HC2    -2.981668  -30.542973    6.447046 H    644 MOH     0.0372 ****
4169 HC3    -4.630580  -30.226989    5.841763 H    644 MOH     0.0372 ****
4170 O1     -4.531276  -31.392130    7.497807 O    644 MOH    -0.6497 ****
4171 HO1    -4.281283  -32.216791    7.073543 H    644 MOH     0.4215 ****
4172 HC1   -16.127933  -30.108189   -1.173444 H    645 MOH     0.0372 ****
4173 C1    -16.294210  -29.037762   -1.054650 C    645 MOH     0.1166 ****
4174 HC2   -15.940872  -28.716879   -0.074600 H    645 MOH     0.0372 ****
4175 HC3   -17.361154  -28.824656   -1.126775 H    645 MOH     0.0372 ****
4176 O1    -15.607163  -28.323327   -2.064398 O    645 MOH    -0.6497 ****
4177 HO1   -15.697807  -28.853234   -2.859186 H    645 MOH     0.4215 ****
4178 HC1    -9.464734  -23.792180   -4.022377 H    646 MOH     0.0372 ****
4179 C1     -8.593512  -24.447418   -4.041469 C    646 MOH     0.1166 ****
4180 HC2    -8.594090  -25.018966   -4.969193 H    646 MOH     0.0372 ****
4181 HC3    -8.621225  -25.156545   -3.213447 H    646 MOH     0.0372 ****
4182 O1     -7.415140  -23.662765   -3.967930 O    646 MOH    -0.6497 ****
4183 HO1    -7.444585  -23.152046   -3.155464 H    646 MOH     0.4215 ****
4184 HC1     4.283708  -29.420699   -4.066924 H    647 MOH     0.0372 ****
4185 C1      3.836839  -29.006735   -4.970607 C    647 MOH     0.1166 ****
4186 HC2     2.809156  -28.687893   -4.798780 H    647 MOH     0.0372 ****
4187 HC3     3.867439  -29.779141   -5.739939 H    647 MOH     0.0372 ****
4188 O1      4.647439  -27.942432   -5.358809 O    647 MOH    -0.6497 ****
4189 HO1     4.829304  -27.396196   -4.590891 H    647 MOH     0.4215 ****
4190 HC1    -2.490343  -31.673005   -9.472756 H    648 MOH     0.0372 ****
4191 C1     -3.414680  -31.157795   -9.734385 C    648 MOH     0.1166 ****
4192 HC2    -4.127708  -31.204744   -8.910606 H    648 MOH     0.0372 ****
4193 HC3    -3.850580  -31.604011  -10.627461 H    648 MOH     0.0372 ****
4194 O1     -3.176812  -29.808535  -10.013693 O    648 MOH    -0.6497 ****
4195 HO1    -2.672208  -29.778324  -10.829694 H    648 MOH     0.4215 ****
4196 HC1   -10.768391  -24.479670    0.579474 H    649 MOH     0.0372 ****
4197 C1    -11.139050  -24.876487    1.524169 C    649 MOH     0.1166 ****
4198 HC2   -10.284571  -24.999370    2.189556 H    649 MOH     0.0372 ****
4199 HC3   -11.610745  -25.852201    1.408203 H    649 MOH     0.0372 ****
4200 O1    -11.994105  -23.941190    2.086319 O    649 MOH    -0.6497 ****
4201 HO1   -11.809353  -23.939557    3.028185 H    649 MOH     0.4215 ****
4202 HC1   -11.480264  -29.154521    6.317646 H    650 MOH     0.0372 ****
4203 C1    -11.546659  -29.414983    7.374063 C    650 MOH     0.1166 ****
4204 HC2   -11.438695  -30.493167    7.497807 H    650 MOH     0.0372 ****
4205 HC3   -12.530464  -29.100224    7.722667 H    650 MOH     0.0372 ****
4206 O1    -10.562854  -28.696058    8.097433 O    650 MOH    -0.6497 ****
4207 HO1    -9.740130  -28.805060    7.614479 H    650 MOH     0.4215 ****
4208 HC1    -3.933718  -26.593579   11.166277 H    651 MOH     0.0372 ****
4209 C1     -3.496087  -27.497033   10.741306 C    651 MOH     0.1166 ****
4210 HC2    -3.252445  -27.301890    9.697616 H    651 MOH     0.0372 ****
4211 HC3    -4.201609  -28.323327   10.834644 H    651 MOH     0.0372 ****
4212 O1     -2.359862  -27.794646   11.488718 O    651 MOH    -0.6497 ****
4213 HO1    -1.732282  -27.068780   11.440634 H    651 MOH     0.4215 ****
4214 HC1   -10.770700  -23.065906   -2.495733 H    652 MOH     0.0372 ****
4215 C1    -10.204320  -22.760944   -1.615385 C    652 MOH     0.1166 ****
4216 HC2    -9.818650  -23.654600   -1.123946 H    652 MOH     0.0372 ****
4217 HC3   -10.858457  -22.237162   -0.918885 H    652 MOH     0.0372 ****
4218 O1     -9.109663  -21.946489   -2.020558 O    652 MOH    -0.6497 ****
4219 HO1    -9.460692  -21.071205   -2.197334 H    652 MOH     0.4215 ****
4220 HC1    -1.952830  -28.807510    7.364164 H    653 MOH     0.0372 ****
4221 C1     -1.027337  -28.507856    7.857724 C    653 MOH     0.1166 ****
4222 HC2    -0.583355  -29.361911    8.369670 H    653 MOH     0.0372 ****
4223 HC3    -1.273288  -27.755862    8.607257 H    653 MOH     0.0372 ****
4224 O1     -0.145146  -28.008568    6.831712 O    653 MOH    -0.6497 ****
4225 HO1    -0.335672  -27.070413    6.756759 H    653 MOH     0.4215 ****
4226 HC1    -3.535924  -24.938541    2.712108 H    654 MOH     0.0372 ****
4227 C1     -2.590224  -24.595612    3.132130 C    654 MOH     0.1166 ****
4228 HC2    -2.703962  -23.621124    3.608012 H    654 MOH     0.0372 ****
4229 HC3    -1.860454  -24.482119    2.330271 H    654 MOH     0.0372 ****
4230 O1     -2.148551  -25.517845    4.104401 O    654 MOH    -0.6497 ****
4231 HO1    -1.317167  -25.906089    3.822266 H    654 MOH     0.4215 ****
4232 HC1    -4.219622  -20.804374    2.145716 H    655 MOH     0.0372 ****
4233 C1     -5.020407  -21.198333    2.771505 C    655 MOH     0.1166 ****
4234 HC2    -5.586210  -21.928689    2.192385 H    655 MOH     0.0372 ****
4235 HC3    -5.693020  -20.421437    3.132837 H    655 MOH     0.0372 ****
4236 O1     -4.523308  -21.939304    3.815902 O    655 MOH    -0.6497 ****
4237 HO1    -3.978867  -21.343261    4.334918 H    655 MOH     0.4215 ****
4238 HC1     7.889722  -19.565340    6.652107 H    656 MOH     0.0372 ****
4239 C1      7.950921  -18.785586    7.410126 C    656 MOH     0.1166 ****
4240 HC2     8.311188  -19.231393    8.337850 H    656 MOH     0.0372 ****
4241 HC3     6.957879  -18.360191    7.555790 H    656 MOH     0.0372 ****
4242 O1      8.822143  -17.762924    6.982326 O    656 MOH    -0.6497 ****
4243 HO1     9.708953  -18.122999    6.915858 H    656 MOH     0.4215 ****
4244 HC1    14.148199  -14.816188    0.871509 H    657 MOH     0.0372 ****
4245 C1     14.581789  -14.623086    1.852266 C    657 MOH     0.1166 ****
4246 HC2    14.867578  -13.572255    1.903178 H    657 MOH     0.0372 ****
4247 HC3    15.469754  -15.242399    1.978839 H    657 MOH     0.0372 ****
4248 O1     13.627429  -14.937846    2.859894 O    657 MOH    -0.6497 ****
4249 HO1    13.828347  -15.829460    3.152636 H    657 MOH     0.4215 ****
4250 HC1     7.510981  -25.669877   -6.761001 H    658 MOH     0.0372 ****
4251 C1      7.323919  -26.655796   -6.336030 C    658 MOH     0.1166 ****
4252 HC2     6.931898  -26.561083   -5.323453 H    658 MOH     0.0372 ****
4253 HC3     8.281166  -27.172231   -6.267441 H    658 MOH     0.0372 ****
4254 O1      6.482720  -27.459637   -7.185265 O    658 MOH    -0.6497 ****
4255 HO1     5.766805  -27.805832   -6.647864 H    658 MOH     0.4215 ****
4256 HC1    10.141388  -25.197942   -0.124097 H    659 MOH     0.0372 ****
4257 C1      9.292684  -24.763157    0.404112 C    659 MOH     0.1166 ****
4258 HC2     9.156429  -23.736005    0.066115 H    659 MOH     0.0372 ****
4259 HC3     9.457228  -24.775405    1.481743 H    659 MOH     0.0372 ****
4260 O1      8.127013  -25.461262    0.070357 O    659 MOH    -0.6497 ****
4261 HO1     8.154149  -26.261837    0.599980 H    659 MOH     0.4215 ****
4262 HC1    18.217941  -16.427544   -3.743777 H    660 MOH     0.0372 ****
4263 C1     18.023374  -15.686165   -2.968788 C    660 MOH     0.1166 ****
4264 HC2    16.959318  -15.644115   -2.736149 H    660 MOH     0.0372 ****
4265 HC3    18.324751  -14.697796   -3.315977 H    660 MOH     0.0372 ****
4266 O1     18.693101  -16.016438   -1.757514 O    660 MOH    -0.6497 ****
4267 HO1    18.475440  -16.910910   -1.485278 H    660 MOH     0.4215 ****
4268 HC1     2.331571  -11.714726    2.723422 H    661 MOH     0.0372 ****
4269 C1      2.935480  -11.163182    3.443964 C    661 MOH     0.1166 ****
4270 HC2     3.747234  -11.798416    3.797517 H    661 MOH     0.0372 ****
4271 HC3     2.287115  -10.877408    4.272693 H    661 MOH     0.0372 ****
4272 O1      3.440084  -10.039275    2.788476 O    661 MOH    -0.6497 ****
4273 HO1     4.252993   -9.777587    3.227589 H    661 MOH     0.4215 ****
4274 HC1     9.035763  -18.122183   -9.737921 H    662 MOH     0.0372 ****
4275 C1      8.243638  -18.654538   -9.211833 C    662 MOH     0.1166 ****
4276 HC2     8.270774  -18.396934   -8.153295 H    662 MOH     0.0372 ****
4277 HC3     8.409338  -19.722108   -9.353962 H    662 MOH     0.0372 ****
4278 O1      7.015037  -18.238942   -9.767619 O    662 MOH    -0.6497 ****
4279 HO1     6.320484  -18.597792   -9.209712 H    662 MOH     0.4215 ****
4280 HC1     9.732047  -10.231151  -10.857271 H    663 MOH     0.0372 ****
4281 C1     10.269560   -9.888631  -11.741861 C    663 MOH     0.1166 ****
4282 HC2     9.941625  -10.462628  -12.608774 H    663 MOH     0.0372 ****
4283 HC3    11.328998  -10.073159  -11.563671 H    663 MOH     0.0372 ****
4284 O1     10.009175   -8.507935  -12.010562 O    663 MOH    -0.6497 ****
4285 HO1    10.268406   -8.302995  -12.911416 H    663 MOH     0.4215 ****
4286 HC1     0.393406  -17.036242    7.108191 H    664 MOH     0.0372 ****
4287 C1     -0.626772  -17.328956    7.356386 C    664 MOH     0.1166 ****
4288 HC2    -0.787852  -17.271393    8.431895 H    664 MOH     0.0372 ****
4289 HC3    -0.835195  -18.351210    7.039602 H    664 MOH     0.0372 ****
4290 O1     -1.513004  -16.436525    6.755345 O    664 MOH    -0.6497 ****
4291 HO1    -1.061516  -16.060120    5.995912 H    664 MOH     0.4215 ****
4292 HC1     4.190639  -13.088073   -7.788428 H    665 MOH     0.0372 ****
4293 C1      4.236250  -13.542861   -8.778377 C    665 MOH     0.1166 ****
4294 HC2     5.153660  -14.121757   -8.887271 H    665 MOH     0.0372 ****
4295 HC3     4.225858  -12.765148   -9.541345 H    665 MOH     0.0372 ****
4296 O1      3.132934  -14.379362   -8.995459 O    665 MOH    -0.6497 ****
4297 HO1     3.392164  -15.266894   -8.738072 H    665 MOH     0.4215 ****
4298 HC1    12.297792  -17.644940   -9.293151 H    666 MOH     0.0372 ****
4299 C1     12.496400  -16.684332   -8.818682 C    666 MOH     0.1166 ****
4300 HC2    13.561034  -16.467144   -8.902121 H    666 MOH     0.0372 ****
4301 HC3    12.267192  -16.719441   -7.753779 H    666 MOH     0.0372 ****
4302 O1     11.703121  -15.688614   -9.469927 O    666 MOH    -0.6497 ****
4303 HO1    11.750464  -14.912534   -8.906363 H    666 MOH     0.4215 ****
4304 HC1    -5.007705  -14.249539    3.312442 H    667 MOH     0.0372 ****
4305 C1     -3.967320  -14.222186    2.986466 C    667 MOH     0.1166 ****
4306 HC2    -3.383042  -14.861912    3.649025 H    667 MOH     0.0372 ****
4307 HC3    -3.626106  -13.188502    3.040206 H    667 MOH     0.0372 ****
4308 O1     -3.900347  -14.704328    1.663469 O    667 MOH    -0.6497 ****
4309 HO1    -4.495018  -15.457138    1.619628 H    667 MOH     0.4215 ****
4310 HC1    -2.127305  -18.931739   -0.847467 H    668 MOH     0.0372 ****
4311 C1     -1.212782  -18.625553   -1.355170 C    668 MOH     0.1166 ****
4312 HC2    -0.617534  -17.971131   -0.718067 H    668 MOH     0.0372 ****
4313 HC3    -1.488178  -18.079316   -2.257438 H    668 MOH     0.0372 ****
4314 O1     -0.510724  -19.764974   -1.753271 O    668 MOH    -0.6497 ****
4315 HO1     0.424006  -19.566157   -1.663469 H    668 MOH     0.4215 ****
4316 HC1    11.139050  -23.112201   -4.281178 H    669 MOH     0.0372 ****
4317 C1     11.186392  -22.388785   -3.466591 C    669 MOH     0.1166 ****
4318 HC2    10.393113  -21.661287   -3.637711 H    669 MOH     0.0372 ****
4319 HC3    12.147103  -21.875209   -3.513260 H    669 MOH     0.0372 ****
4320 O1     11.001063  -23.030552   -2.172585 O    669 MOH    -0.6497 ****
4321 HO1    10.809383  -22.354901   -1.517097 H    669 MOH     0.4215 ****
4322 HC1    -5.181488  -19.269360   -5.703170 H    670 MOH     0.0372 ****
4323 C1     -5.138764  -19.027677   -4.641095 C    670 MOH     0.1166 ****
4324 HC2    -4.101843  -19.089731   -4.310169 H    670 MOH     0.0372 ****
4325 HC3    -5.736321  -19.729456   -4.059146 H    670 MOH     0.0372 ****
4326 O1     -5.572354  -17.733938   -4.371688 O    670 MOH    -0.6497 ****
4327 HO1    -6.341962  -17.542470   -4.912624 H    670 MOH     0.4215 ****
4328 HC1    -7.784760  -15.331805    2.012072 H    671 MOH     0.0372 ****
4329 C1     -8.219505  -16.217296    2.475227 C    671 MOH     0.1166 ****
4330 HC2    -8.631733  -16.892130    1.724987 H    671 MOH     0.0372 ****
4331 HC3    -9.041652  -15.931114    3.132130 H    671 MOH     0.0372 ****
4332 O1     -7.314220  -16.919891    3.270722 O    671 MOH    -0.6497 ****
4333 HO1    -7.840763  -17.637592    3.631347 H    671 MOH     0.4215 ****
4334 HC1    17.896935  -14.397733    0.037830 H    672 MOH     0.0372 ****
4335 C1     17.979496  -13.457946    0.583717 C    672 MOH     0.1166 ****
4336 HC2    17.152730  -12.802299    0.310774 H    672 MOH     0.0372 ****
4337 HC3    18.936742  -12.995809    0.339058 H    672 MOH     0.0372 ****
4338 O1     17.938504  -13.815979    1.925098 O    672 MOH    -0.6497 ****
4339 HO1    18.162516  -13.072968    2.489370 H    672 MOH     0.4215 ****
4340 HC1     5.804333   -9.773505   -0.218849 H    673 MOH     0.0372 ****
4341 C1      5.138648   -8.914550   -0.133997 C    673 MOH     0.1166 ****
4342 HC2     4.096531   -9.234617   -0.141068 H    673 MOH     0.0372 ****
4343 HC3     5.273748   -8.289931   -1.016466 H    673 MOH     0.0372 ****
4344 O1      5.364392   -8.117650    1.069499 O    673 MOH    -0.6497 ****
4345 HO1     5.291646   -8.684707    1.839538 H    673 MOH     0.4215 ****
4346 HC1     5.878811  -20.427560    8.731001 H    674 MOH     0.0372 ****
4347 C1      6.178456  -21.474717    8.716152 C    674 MOH     0.1166 ****
4348 HC2     6.812387  -21.663328    7.849239 H    674 MOH     0.0372 ****
4349 HC3     5.310699  -22.128731    8.636956 H    674 MOH     0.0372 ****
4350 O1      6.883401  -21.785803    9.909748 O    674 MOH    -0.6497 ****
4351 HO1     7.317568  -22.634142    9.790954 H    674 MOH     0.4215 ****
4352 HC1    -1.872116  -17.159941   -5.316382 H    675 MOH     0.0372 ****
4353 C1     -2.412516  -16.290372   -5.689735 C    675 MOH     0.1166 ****
4354 HC2    -2.855921  -16.619829   -6.629480 H    675 MOH     0.0372 ****
4355 HC3    -1.689673  -15.487348   -5.836106 H    675 MOH     0.0372 ****
4356 O1     -3.403826  -15.951935   -4.696250 O    675 MOH    -0.6497 ****
4357 HO1    -4.039489  -16.665961   -4.613518 H    675 MOH     0.4215 ****
4358 HC1    -3.428652  -23.931964   -9.625491 H    676 MOH     0.0372 ****
4359 C1     -3.015847  -22.924407   -9.662260 C    676 MOH     0.1166 ****
4360 HC2    -3.101295  -22.453697   -8.682918 H    676 MOH     0.0372 ****
4361 HC3    -3.592620  -22.336530  -10.376438 H    676 MOH     0.0372 ****
4362 O1     -1.676394  -22.979929  -10.093596 O    676 MOH    -0.6497 ****
4363 HO1    -1.642908  -23.640475  -10.789389 H    676 MOH     0.4215 ****
4364 HC1     6.552579  -19.311818    1.307087 H    677 MOH     0.0372 ****
4365 C1      6.412283  -19.466136    0.237942 C    677 MOH     0.1166 ****
4366 HC2     6.215984  -18.511651   -0.251376 H    677 MOH     0.0372 ****
4367 HC3     5.578012  -20.145053    0.061872 H    677 MOH     0.0372 ****
4368 O1      7.587768  -20.020537   -0.313602 O    677 MOH    -0.6497 ****
4369 HO1     8.234400  -20.121374    0.388555 H    677 MOH     0.4215 ****
4370 HC1     9.315778  -11.275450    2.597557 H    678 MOH     0.0372 ****
4371 C1      9.798442  -12.241366    2.450479 C    678 MOH     0.1166 ****
4372 HC2     9.025370  -12.995400    2.302693 H    678 MOH     0.0372 ****
4373 HC3    10.363091  -12.483865    3.349919 H    678 MOH     0.0372 ****
4374 O1     10.706614  -12.213605    1.327593 O    678 MOH    -0.6497 ****
4375 HO1    11.417910  -11.609397    1.556696 H    678 MOH     0.4215 ****
4376 HC1     4.008774  -19.517983   -6.061673 H    679 MOH     0.0372 ****
4377 C1      3.847693  -20.530847   -5.693270 C    679 MOH     0.1166 ****
4378 HC2     3.096560  -20.485940   -4.905553 H    679 MOH     0.0372 ****
4379 HC3     4.772608  -20.931339   -5.278198 H    679 MOH     0.0372 ****
4380 O1      3.396205  -21.377554   -6.749688 O    679 MOH    -0.6497 ****
4381 HO1     3.800928  -22.235692   -6.599781 H    679 MOH     0.4215 ****
4382 HC1    13.014283  -25.400841    1.552453 H    680 MOH     0.0372 ****
4383 C1     12.848006  -25.313884    2.626548 C    680 MOH     0.1166 ****
4384 HC2    12.920175  -24.257746    2.886057 H    680 MOH     0.0372 ****
4385 HC3    13.634935  -25.867877    3.139201 H    680 MOH     0.0372 ****
4386 O1     11.522410  -25.832768    2.860601 O    680 MOH    -0.6497 ****
4387 HO1    11.211218  -25.484124    3.699229 H    680 MOH     0.4215 ****
4388 HC1    11.880367   -8.003748   10.733528 H    681 MOH     0.0372 ****
4389 C1     11.169072   -8.829635   10.722921 C    681 MOH     0.1166 ****
4390 HC2    11.531070   -9.560807    9.999551 H    681 MOH     0.0372 ****
4391 HC3    10.180071   -8.457312   10.452806 H    681 MOH     0.0372 ****
4392 O1     11.105563   -9.403224   12.007734 O    681 MOH    -0.6497 ****
4393 HO1    10.829590   -8.719408   12.622210 H    681 MOH     0.4215 ****
4394 HC1     7.810048   -6.474042   -6.274512 H    682 MOH     0.0372 ****
4395 C1      7.229234   -6.092738   -5.434469 C    682 MOH     0.1166 ****
4396 HC2     7.526569   -5.085590   -5.142434 H    682 MOH     0.0372 ****
4397 HC3     7.437080   -6.747977   -4.588062 H    682 MOH     0.0372 ****
4398 O1      5.849944   -6.136421   -5.719433 O    682 MOH    -0.6497 ****
4399 HO1     5.444644   -6.811255   -5.170011 H    682 MOH     0.4215 ****
4400 HC1    -3.612250  -16.830893    4.751404 H    683 MOH     0.0372 ****
4401 C1     -4.003693  -17.600033    4.086724 C    683 MOH     0.1166 ****
4402 HC2    -3.504285  -17.566148    3.118695 H    683 MOH     0.0372 ****
4403 HC3    -5.075255  -17.437550    3.962273 H    683 MOH     0.0372 ****
4404 O1     -3.862820  -18.866827    4.671501 O    683 MOH    -0.6497 ****
4405 HO1    -4.309112  -18.867236    5.520736 H    683 MOH     0.4215 ****
4406 HC1    12.607829  -19.262828    0.370878 H    684 MOH     0.0372 ****
4407 C1     12.591086  -20.269977   -0.047022 C    684 MOH     0.1166 ****
4408 HC2    13.092803  -20.928481    0.660792 H    684 MOH     0.0372 ****
4409 HC3    13.142455  -20.298554   -0.987474 H    684 MOH     0.0372 ****
4410 O1     11.248169  -20.705578   -0.196222 O    684 MOH    -0.6497 ****
4411 HO1    10.756266  -20.444707    0.586545 H    684 MOH     0.4215 ****
4412 HC1     6.742527  -15.471835   -0.497449 H    685 MOH     0.0372 ****
4413 C1      5.679048  -15.270976   -0.628971 C    685 MOH     0.1166 ****
4414 HC2     5.097079  -16.191985   -0.602101 H    685 MOH     0.0372 ****
4415 HC3     5.513926  -14.800266   -1.598415 H    685 MOH     0.0372 ****
4416 O1      5.228715  -14.380587    0.350372 O    685 MOH    -0.6497 ****
4417 HO1     5.338989  -13.486115    0.020153 H    685 MOH     0.4215 ****
4418 HC1     6.222912  -23.800100    1.909542 H    686 MOH     0.0372 ****
4419 C1      6.037005  -23.214263    1.009395 C    686 MOH     0.1166 ****
4420 HC2     6.054903  -23.838067    0.115612 H    686 MOH     0.0372 ****
4421 HC3     6.784674  -22.428794    0.900501 H    686 MOH     0.0372 ****
4422 O1      4.794548  -22.625978    1.138796 O    686 MOH    -0.6497 ****
4423 HO1     4.496057  -22.515342    0.232992 H    686 MOH     0.4215 ****
4424 HC1     7.407635  -20.225069    3.328705 H    687 MOH     0.0372 ****
4425 C1      8.161654  -20.978696    3.101017 C    687 MOH     0.1166 ****
4426 HC2     7.675525  -21.868269    2.701502 H    687 MOH     0.0372 ****
4427 HC3     8.650670  -21.268144    4.030862 H    687 MOH     0.0372 ****
4428 O1      9.095807  -20.436542    2.156322 O    687 MOH    -0.6497 ****
4429 HO1     9.312313  -19.538804    2.415831 H    687 MOH     0.4215 ****
4430 HC1     5.653067  -11.872309   -5.757617 H    688 MOH     0.0372 ****
4431 C1      5.415777  -12.158900   -4.732312 C    688 MOH     0.1166 ****
4432 HC2     6.177879  -12.821487   -4.322897 H    688 MOH     0.0372 ****
4433 HC3     4.462571  -12.687581   -4.751404 H    688 MOH     0.0372 ****
4434 O1      5.314163  -11.032543   -3.894390 O    688 MOH    -0.6497 ****
4435 HO1     6.087812  -10.476100   -4.013892 H    688 MOH     0.4215 ****
4436 HC1     3.344244  -26.854613    0.594323 H    689 MOH     0.0372 ****
4437 C1      2.937212  -25.853997    0.449367 C    689 MOH     0.1166 ****
4438 HC2     1.891630  -25.899721    0.143896 H    689 MOH     0.0372 ****
4439 HC3     3.493777  -25.396350   -0.367342 H    689 MOH     0.0372 ****
4440 O1      3.091942  -25.030152    1.606193 O    689 MOH    -0.6497 ****
4441 HO1     3.374843  -24.149968    1.345978 H    689 MOH     0.4215 ****
4442 HC1     2.750150  -22.449206    2.816760 H    690 MOH     0.0372 ****
4443 C1      2.838485  -21.463286    3.272844 C    690 MOH     0.1166 ****
4444 HC2     2.237463  -21.431443    4.180769 H    690 MOH     0.0372 ****
4445 HC3     2.486301  -20.728031    2.549474 H    690 MOH     0.0372 ****
4446 O1      4.178515  -21.259571    3.580435 O    690 MOH    -0.6497 ****
4447 HO1     4.663489  -21.726198    2.896663 H    690 MOH     0.4215 ****
4448 HC1     7.046214   -8.349127    7.615187 H    691 MOH     0.0372 ****
4449 C1      7.003490   -7.475067    6.965355 C    691 MOH     0.1166 ****
4450 HC2     7.804274   -6.774921    7.203650 H    691 MOH     0.0372 ****
4451 HC3     6.064141   -6.959041    7.160517 H    691 MOH     0.0372 ****
4452 O1      7.004067   -7.829427    5.573769 O    691 MOH    -0.6497 ****
4453 HO1     7.113186   -7.037017    5.042732 H    691 MOH     0.4215 ****
4454 HC1     4.713719  -27.286540    3.630640 H    692 MOH     0.0372 ****
4455 C1      5.789899  -27.278375    3.460934 C    692 MOH     0.1166 ****
4456 HC2     6.210210  -26.418196    3.980658 H    692 MOH     0.0372 ****
4457 HC3     5.993704  -27.217954    2.391789 H    692 MOH     0.0372 ****
4458 O1      6.383415  -28.423103    3.961566 O    692 MOH    -0.6497 ****
4459 HO1     5.921535  -28.684382    4.760597 H    692 MOH     0.4215 ****
4460 HC1     1.359891  -12.618587   -3.770647 H    693 MOH     0.0372 ****
4461 C1      0.777344  -13.491422   -3.475076 C    693 MOH     0.1166 ****
4462 HC2     1.113362  -14.406307   -3.962273 H    693 MOH     0.0372 ****
4463 HC3    -0.242833  -13.311385   -3.812366 H    693 MOH     0.0372 ****
4464 O1      0.770416  -13.638391   -2.072176 O    693 MOH    -0.6497 ****
4465 HO1     0.583932  -12.776579   -1.691046 H    693 MOH     0.4215 ****
4466 HC1     0.529084  -15.633093    0.500278 H    694 MOH     0.0372 ****
4467 C1      1.560809  -15.916825    0.294510 C    694 MOH     0.1166 ****
4468 HC2     1.831586  -16.742711    0.951412 H    694 MOH     0.0372 ****
4469 HC3     2.209173  -15.066036    0.505228 H    694 MOH     0.0372 ****
4470 O1      1.698795  -16.236075   -1.067378 O    694 MOH    -0.6497 ****
4471 HO1     1.402037  -15.443257   -1.519926 H    694 MOH     0.4215 ****
4472 HC1     6.023149  -16.360591   -5.186275 H    695 MOH     0.0372 ****
4473 C1      6.037583  -15.653097   -6.015711 C    695 MOH     0.1166 ****
4474 HC2     5.046850  -15.221987   -6.157132 H    695 MOH     0.0372 ****
4475 HC3     6.376487  -16.146261   -6.926464 H    695 MOH     0.0372 ****
4476 O1      6.914578  -14.601449   -5.708826 O    695 MOH    -0.6497 ****
4477 HO1     7.110877  -14.594509   -4.769082 H    695 MOH     0.4215 ****
4478 HC1    12.154609  -20.195267    8.143395 H    696 MOH     0.0372 ****
4479 C1     12.229664  -19.153418    7.833683 C    696 MOH     0.1166 ****
4480 HC2    13.268317  -18.928881    7.590438 H    696 MOH     0.0372 ****
4481 HC3    11.867666  -18.552068    8.668776 H    696 MOH     0.0372 ****
4482 O1     11.341700  -18.995834    6.757466 O    696 MOH    -0.6497 ****
4483 HO1    11.708894  -19.516350    6.039753 H    696 MOH     0.4215 ****
4484 HC1     1.879506  -24.107919    8.692110 H    697 MOH     0.0372 ****
4485 C1      2.871971  -24.087098    8.241683 C    697 MOH     0.1166 ****
4486 HC2     3.395050  -23.175888    8.531597 H    697 MOH     0.0372 ****
4487 HC3     2.811927  -24.142620    7.155567 H    697 MOH     0.0372 ****
4488 O1      3.606938  -25.151810    8.689989 O    697 MOH    -0.6497 ****
4489 HO1     3.160069  -25.947894    8.394418 H    697 MOH     0.4215 ****
4490 HC1    -0.180480  -11.878433    1.697410 H    698 MOH     0.0372 ****
4491 C1     -0.420080  -12.511218    2.551595 C    698 MOH     0.1166 ****
4492 HC2    -1.465661  -12.386702    2.832316 H    698 MOH     0.0372 ****
4493 HC3     0.212118  -12.203807    3.385274 H    698 MOH     0.0372 ****
4494 O1     -0.118126  -13.861295    2.235518 O    698 MOH    -0.6497 ****
4495 HO1    -0.580583  -14.134413    1.440023 H    698 MOH     0.4215 ****
4496 HC1    -2.773937  -19.816821   -7.402347 H    699 MOH     0.0372 ****
4497 C1     -1.985854  -19.782528   -8.154709 C    699 MOH     0.1166 ****
4498 HC2    -2.406165  -19.391018   -9.081726 H    699 MOH     0.0372 ****
4499 HC3    -1.588060  -20.780287   -8.341385 H    699 MOH     0.0372 ****
4500 O1     -0.979532  -18.882341   -7.804691 O    699 MOH    -0.6497 ****
4501 HO1    -0.152189  -19.347336   -7.948234 H    699 MOH     0.4215 ****
4502 HC1     0.429780  -20.437359  -10.120466 H    700 MOH     0.0372 ****
4503 C1      0.859906  -21.007273   -9.295979 C    700 MOH     0.1166 ****
4504 HC2     1.635287  -21.651081   -9.711051 H    700 MOH     0.0372 ****
4505 HC3     0.114546  -21.655980   -8.835653 H    700 MOH     0.0372 ****
4506 O1      1.429173  -20.112801   -8.356234 O    700 MOH    -0.6497 ****
4507 HO1     1.843710  -20.652097   -7.679533 H    700 MOH     0.4215 ****
4508 HC1    11.492965  -17.399175   -3.175263 H    701 MOH     0.0372 ****
4509 C1     11.453706  -18.468785   -3.380324 C    701 MOH     0.1166 ****
4510 HC2    10.675437  -18.897038   -2.748877 H    701 MOH     0.0372 ****
4511 HC3    12.422499  -18.905203   -3.136372 H    701 MOH     0.0372 ****
4512 O1     11.165030  -18.760683   -4.748575 O    701 MOH    -0.6497 ****
4513 HO1    11.594579  -19.575138   -5.020811 H    701 MOH     0.4215 ****
4514 HC1    15.654506  -18.719041   -5.421741 H    702 MOH     0.0372 ****
4515 C1     15.132004  -17.789868   -5.194053 C    702 MOH     0.1166 ****
4516 HC2    14.099702  -18.002974   -4.915453 H    702 MOH     0.0372 ****
4517 HC3    15.172419  -17.143611   -6.070158 H    702 MOH     0.0372 ****
4518 O1     15.819628  -17.226486   -4.127736 O    702 MOH    -0.6497 ****
4519 HO1    16.282086  -17.941737   -3.685087 H    702 MOH     0.4215 ****
4520 HC1     9.054815  -23.504936    4.218246 H    703 MOH     0.0372 ****
4521 C1      9.305963  -24.025453    5.142434 C    703 MOH     0.1166 ****
4522 HC2     8.639123  -24.879100    5.263350 H    703 MOH     0.0372 ****
4523 HC3     9.182987  -23.355517    5.993084 H    703 MOH     0.0372 ****
4524 O1     10.645993  -24.456155    5.045561 O    703 MOH    -0.6497 ****
4525 HO1    10.835941  -25.011781    5.804286 H    703 MOH     0.4215 ****
4526 HC1    10.527636  -16.574513   -5.802872 H    704 MOH     0.0372 ****
4527 C1      9.590596  -16.318542   -6.295725 C    704 MOH     0.1166 ****
4528 HC2     8.752284  -16.650447   -5.682663 H    704 MOH     0.0372 ****
4529 HC3     9.572121  -16.817421   -7.264461 H    704 MOH     0.0372 ****
4530 O1      9.559997  -14.934988   -6.512807 O    704 MOH    -0.6497 ****
4531 HO1     8.643742  -14.693713   -6.664835 H    704 MOH     0.4215 ****
4532 HC1     0.581045  -17.276700    3.439014 H    705 MOH     0.0372 ****
4533 C1     -0.428740  -16.877433    3.530938 C    705 MOH     0.1166 ****
4534 HC2    -1.041309  -17.618812    4.044297 H    705 MOH     0.0372 ****
4535 HC3    -0.829999  -16.685557    2.535331 H    705 MOH     0.0372 ****
4536 O1     -0.360613  -15.688614    4.293199 O    705 MOH    -0.6497 ****
4537 HO1    -0.026327  -14.995409    3.719028 H    705 MOH     0.4215 ****
4538 HC1     7.198057  -21.284474   -7.510534 H    706 MOH     0.0372 ****
4539 C1      7.503475  -22.264678   -7.877523 C    706 MOH     0.1166 ****
4540 HC2     8.452639  -22.185069   -8.407146 H    706 MOH     0.0372 ****
4541 HC3     6.736754  -22.657005   -8.544325 H    706 MOH     0.0372 ****
4542 O1      7.657050  -23.185278   -6.803428 O    706 MOH    -0.6497 ****
4543 HO1     8.506333  -23.619246   -6.911615 H    706 MOH     0.4215 ****
4544 HC1    13.039109  -23.932780   -0.837568 H    707 MOH     0.0372 ****
4545 C1     13.910331  -23.429410   -1.256882 C    707 MOH     0.1166 ****
4546 HC2    13.612418  -22.480233   -1.700238 H    707 MOH     0.0372 ****
4547 HC3    14.349117  -24.040966   -2.046013 H    707 MOH     0.0372 ****
4548 O1     14.879125  -23.154251   -0.271175 O    707 MOH    -0.6497 ****
4549 HO1    15.309251  -23.992385   -0.088034 H    707 MOH     0.4215 ****
4550 HC1    -3.675181  -10.040499    1.862873 H    708 MOH     0.0372 ****
4551 C1     -2.812620   -9.577546    1.383454 C    708 MOH     0.1166 ****
4552 HC2    -2.025691   -9.462828    2.129452 H    708 MOH     0.0372 ****
4553 HC3    -3.129585   -8.585502    1.061014 H    708 MOH     0.0372 ****
4554 O1     -2.429836  -10.365057    0.224506 O    708 MOH    -0.6497 ****
4555 HO1    -3.123811  -10.318925   -0.436638 H    708 MOH     0.4215 ****
4556 HC1     3.011113  -14.603082    8.123596 H    709 MOH     0.0372 ****
4557 C1      3.619062  -13.732289    7.875402 C    709 MOH     0.1166 ****
4558 HC2     4.668685  -14.001732    7.760851 H    709 MOH     0.0372 ****
4559 HC3     3.562482  -13.010097    8.690696 H    709 MOH     0.0372 ****
4560 O1      3.224155  -13.170131    6.665542 O    709 MOH    -0.6497 ****
4561 HO1     3.505902  -13.768623    5.969749 H    709 MOH     0.4215 ****
4562 HC1     4.483933  -17.609014  -12.585440 H    710 MOH     0.0372 ****
4563 C1      5.407694  -17.420812  -13.133448 C    710 MOH     0.1166 ****
4564 HC2     5.998323  -18.335696  -13.095971 H    710 MOH     0.0372 ****
4565 HC3     5.930196  -16.597375  -12.646251 H    710 MOH     0.0372 ****
4566 O1      5.134607  -17.068494  -14.487557 O    710 MOH    -0.6497 ****
4567 HO1     5.916339  -16.646365  -14.851010 H    710 MOH     0.4215 ****
4568 HC1     8.591780   -8.353209   -2.564323 H    711 MOH     0.0372 ****
4569 C1      7.576799   -8.736554   -2.668267 C    711 MOH     0.1166 ****
4570 HC2     6.855688   -7.919241   -2.647054 H    711 MOH     0.0372 ****
4571 HC3     7.341817   -9.431393   -1.862166 H    711 MOH     0.0372 ****
4572 O1      7.449204   -9.448539   -3.850550 O    711 MOH    -0.6497 ****
4573 HO1     8.169737  -10.081732   -3.882370 H    711 MOH     0.4215 ****
4574 HC1     2.070609  -22.347144   -1.674782 H    712 MOH     0.0372 ****
4575 C1      2.927397  -22.605157   -2.298450 C    712 MOH     0.1166 ****
4576 HC2     3.113304  -21.811931   -3.021821 H    712 MOH     0.0372 ****
4577 HC3     2.681446  -23.509019   -2.855651 H    712 MOH     0.0372 ****
4578 O1      4.090758  -22.795809   -1.497298 O    712 MOH    -0.6497 ****
4579 HO1     4.787042  -23.143636   -2.058741 H    712 MOH     0.4215 ****
4580 HC1     8.125281  -22.687215   -2.491491 H    713 MOH     0.0372 ****
4581 C1      7.627028  -23.462887   -3.071318 C    713 MOH     0.1166 ****
4582 HC2     8.353912  -24.208348   -3.393759 H    713 MOH     0.0372 ****
4583 HC3     7.164570  -22.988910   -3.937524 H    713 MOH     0.0372 ****
4584 O1      6.651883  -24.093630   -2.274409 O    713 MOH    -0.6497 ****
4585 HO1     7.123579  -24.462687   -1.524876 H    713 MOH     0.4215 ****
4586 HC1    11.465830  -16.635342    4.695543 H    714 MOH     0.0372 ****
4587 C1     10.843446  -15.740870    4.686350 C    714 MOH     0.1166 ****
4588 HC2    11.287429  -14.953767    5.295876 H    714 MOH     0.0372 ****
4589 HC3     9.871766  -16.018887    5.095765 H    714 MOH     0.0372 ****
4590 O1     10.663890  -15.288123    3.364768 O    714 MOH    -0.6497 ****
4591 HO1    11.521256  -15.012555    3.031721 H    714 MOH     0.4215 ****
4592 HC1     7.449782  -10.988452   -6.785043 H    715 MOH     0.0372 ****
4593 C1      8.042720  -11.326890   -7.634278 C    715 MOH     0.1166 ****
4594 HC2     8.409915  -12.322607   -7.386084 H    715 MOH     0.0372 ****
4595 HC3     8.889693  -10.656954   -7.786306 H    715 MOH     0.0372 ****
4596 O1      7.238471  -11.377921   -8.804540 O    715 MOH    -0.6497 ****
4597 HO1     7.645503  -12.028260   -9.382246 H    715 MOH     0.4215 ****
4598 HC1     3.206257  -10.667569   -1.122532 H    716 MOH     0.0372 ****
4599 C1      3.387545  -11.705744   -0.843225 C    716 MOH     0.1166 ****
4600 HC2     2.728211  -12.343020   -1.432245 H    716 MOH     0.0372 ****
4601 HC3     3.162956  -11.860470    0.212486 H    716 MOH     0.0372 ****
4602 O1      4.717760  -12.101337   -1.084348 O    716 MOH    -0.6497 ****
4603 HO1     4.897316  -11.993151   -2.021265 H    716 MOH     0.4215 ****
4604 HC1     7.094711  -16.455713    2.536039 H    717 MOH     0.0372 ****
4605 C1      7.548508  -15.576346    2.992830 C    717 MOH     0.1166 ****
4606 HC2     8.385666  -15.259545    2.370576 H    717 MOH     0.0372 ****
4607 HC3     7.852195  -15.825378    4.009649 H    717 MOH     0.0372 ****
4608 O1      6.598190  -14.578587    2.957474 O    717 MOH    -0.6497 ****
4609 HO1     6.270255  -14.523065    2.056620 H    717 MOH     0.4215 ****
4610 HC1    14.457659  -13.136654    7.912879 H    718 MOH     0.0372 ****
4611 C1     14.204780  -12.271984    8.526647 C    718 MOH     0.1166 ****
4612 HC2    15.012493  -12.088681    9.234461 H    718 MOH     0.0372 ****
4613 HC3    13.286793  -12.504686    9.065463 H    718 MOH     0.0372 ****
4614 O1     14.012522  -11.163590    7.670341 O    718 MOH    -0.6497 ****
4615 HO1    13.327207  -11.434667    7.055158 H    718 MOH     0.4215 ****
4616 HC1    10.717007  -20.396125    4.378759 H    719 MOH     0.0372 ****
4617 C1     11.539731  -21.086881    4.193497 C    719 MOH     0.1166 ****
4618 HC2    11.815127  -20.965632    3.146272 H    719 MOH     0.0372 ****
4619 HC3    11.231426  -22.126690    4.300270 H    719 MOH     0.0372 ****
4620 O1     12.629768  -20.776205    5.078088 O    719 MOH    -0.6497 ****
4621 HO1    13.240605  -21.516767    5.090816 H    719 MOH     0.4215 ****
4622 HC1     6.464245  -19.054622   -4.816458 H    720 MOH     0.0372 ****
4623 C1      7.391469  -19.231393   -4.272693 C    720 MOH     0.1166 ****
4624 HC2     7.325651  -20.156075   -3.699229 H    720 MOH     0.0372 ****
4625 HC3     7.614904  -18.394892   -3.610133 H    720 MOH     0.0372 ****
4626 O1      8.394904  -19.333455   -5.203245 O    720 MOH    -0.6497 ****
4627 HO1     9.204926  -18.992568   -4.816458 H    720 MOH     0.4215 ****
4628 HC1     4.367308  -18.910510  -10.089353 H    721 MOH     0.0372 ****
4629 C1      4.647323  -19.818862   -9.555487 C    721 MOH     0.1166 ****
4630 HC2     5.455614  -20.314476  -10.092888 H    721 MOH     0.0372 ****
4631 HC3     3.816516  -20.524724   -9.532153 H    721 MOH     0.0372 ****
4632 O1      5.084955  -19.557583   -8.236026 O    721 MOH    -0.6497 ****
4633 HO1     4.737390  -20.262220   -7.684483 H    721 MOH     0.4215 ****
4634 HC1    15.551160  -19.438375    3.313856 H    722 MOH     0.0372 ****
4635 C1     14.719776  -18.754967    3.144151 C    722 MOH     0.1166 ****
4636 HC2    13.797748  -19.215063    3.501239 H    722 MOH     0.0372 ****
4637 HC3    14.649339  -18.566765    2.072884 H    722 MOH     0.0372 ****
4638 O1     15.047711  -17.534305    3.796103 O    722 MOH    -0.6497 ****
4639 HO1    15.660857  -17.731489    4.508160 H    722 MOH     0.4215 ****
4640 HC1     8.057731  -17.208931   11.797016 H    723 MOH     0.0372 ****
4641 C1      7.166302  -16.582270   11.765196 C    723 MOH     0.1166 ****
4642 HC2     6.277760  -17.213013   11.724891 H    723 MOH     0.0372 ****
4643 HC3     7.175540  -15.964182   10.867171 H    723 MOH     0.0372 ****
4644 O1      7.176695  -15.734746   12.886668 O    723 MOH    -0.6497 ****
4645 HO1     7.932446  -15.154626   12.769995 H    723 MOH     0.4215 ****
4646 HC1    15.310983  -16.612072   -0.663619 H    724 MOH     0.0372 ****
4647 C1     14.301197  -16.932955   -0.919592 C    724 MOH     0.1166 ****
4648 HC2    13.603758  -16.502253   -0.200465 H    724 MOH     0.0372 ****
4649 HC3    14.219791  -18.019304   -0.884944 H    724 MOH     0.0372 ****
4650 O1     13.946127  -16.473676   -2.191677 O    724 MOH    -0.6497 ****
4651 HO1    14.544839  -16.881108   -2.821002 H    724 MOH     0.4215 ****
4652 HC1     9.714726  -15.947035   10.383510 H    725 MOH     0.0372 ****
4653 C1      9.939316  -14.881099   10.433714 C    725 MOH     0.1166 ****
4654 HC2     9.580204  -14.333230    9.562559 H    725 MOH     0.0372 ****
4655 HC3    11.025312  -14.834559   10.361589 H    725 MOH     0.0372 ****
4656 O1      9.578472  -14.283015   11.700143 O    725 MOH    -0.6497 ****
4657 HO1     9.506303  -13.334246   11.574278 H    725 MOH     0.4215 ****
4658 HC1     3.956812  -18.040941    6.833127 H    726 MOH     0.0372 ****
4659 C1      4.302068  -18.883974    6.235621 C    726 MOH     0.1166 ****
4660 HC2     5.042231  -19.415921    6.834541 H    726 MOH     0.0372 ****
4661 HC3     4.743741  -18.498179    5.317090 H    726 MOH     0.0372 ****
4662 O1      3.249558  -19.801716    5.901867 O    726 MOH    -0.6497 ****
4663 HO1     3.528418  -20.314884    5.140313 H    726 MOH     0.4215 ****
4664 HC1    17.455262  -20.903578   -1.728522 H    727 MOH     0.0372 ****
4665 C1     16.549399  -20.579021   -2.239760 C    727 MOH     0.1166 ****
4666 HC2    15.663744  -20.971756   -1.740543 H    727 MOH     0.0372 ****
4667 HC3    16.556905  -20.927256   -3.272843 H    727 MOH     0.0372 ****
4668 O1     16.456446  -19.186894   -2.225618 O    727 MOH    -0.6497 ****
4669 HO1    16.726646  -18.901528   -1.349513 H    727 MOH     0.4215 ****
4670 HC1     9.989545  -16.339770    0.256326 H    728 MOH     0.0372 ****
4671 C1     10.652921  -17.161574    0.525734 C    728 MOH     0.1166 ****
4672 HC2    11.669057  -16.775371    0.603516 H    728 MOH     0.0372 ****
4673 HC3    10.639064  -17.944186   -0.232991 H    728 MOH     0.0372 ****
4674 O1     10.274756  -17.588602    1.812668 O    728 MOH    -0.6497 ****
4675 HO1    10.328450  -16.819462    2.384011 H    728 MOH     0.4215 ****
4676 HC1    13.769457  -10.140520    4.359667 H    729 MOH     0.0372 ****
4677 C1     13.429976  -10.886390    3.640539 C    729 MOH     0.1166 ****
4678 HC2    12.923639  -11.723707    4.122079 H    729 MOH     0.0372 ****
4679 HC3    14.316786  -11.283207    3.145565 H    729 MOH     0.0372 ****
4680 O1     12.588776  -10.265852    2.685945 O    729 MOH    -0.6497 ****
4681 HO1    13.118206   -9.580812    2.270167 H    729 MOH     0.4215 ****
4682 HC1     4.475850  -17.376721   -4.621296 H    730 MOH     0.0372 ****
4683 C1      3.845384  -17.690256   -3.789739 C    730 MOH     0.1166 ****
4684 HC2     2.869084  -18.002974   -4.160263 H    730 MOH     0.0372 ****
4685 HC3     3.675065  -16.863145   -3.099602 H    730 MOH     0.0372 ****
4686 O1      4.447560  -18.744353   -3.093946 O    730 MOH    -0.6497 ****
4687 HO1     3.796886  -19.098712   -2.484420 H    730 MOH     0.4215 ****
4688 HC1     7.138012  -12.644307   -1.477499 H    731 MOH     0.0372 ****
4689 C1      7.794460  -12.368739   -0.652306 C    731 MOH     0.1166 ****
4690 HC2     7.247709  -12.404665    0.290975 H    731 MOH     0.0372 ****
4691 HC3     8.140870  -11.346077   -0.802920 H    731 MOH     0.0372 ****
4692 O1      8.913364  -13.240758   -0.587252 O    731 MOH    -0.6497 ****
4693 HO1     9.518427  -12.914159    0.083085 H    731 MOH     0.4215 ****
4694 HC1    10.914460   -7.929447    6.290069 H    732 MOH     0.0372 ****
4695 C1     10.602691   -8.348310    7.247491 C    732 MOH     0.1166 ****
4696 HC2    10.075570   -7.602032    7.840047 H    732 MOH     0.0372 ****
4697 HC3    11.495275   -8.681849    7.775700 H    732 MOH     0.0372 ****
4698 O1      9.788050   -9.462420    7.020510 O    732 MOH    -0.6497 ****
4699 HO1     9.102158   -9.221145    6.394720 H    732 MOH     0.4215 ****
4700 HC1    -3.523915  -22.712118   -1.424466 H    733 MOH     0.0372 ****
4701 C1     -2.880170  -21.927873   -1.821153 C    733 MOH     0.1166 ****
4702 HC2    -2.846106  -21.126482   -1.083641 H    733 MOH     0.0372 ****
4703 HC3    -3.279119  -21.487781   -2.736150 H    733 MOH     0.0372 ****
4704 O1     -1.568430  -22.392460   -2.051670 O    733 MOH    -0.6497 ****
4705 HO1    -1.126179  -21.605357   -2.376939 H    733 MOH     0.4215 ****
4706 HC1     5.751794  -11.005190    5.082330 H    734 MOH     0.0372 ****
4707 C1      6.333763  -10.762690    4.192790 C    734 MOH     0.1166 ****
4708 HC2     6.297390  -11.584494    3.477905 H    734 MOH     0.0372 ****
4709 HC3     7.360869  -10.619395    4.530080 H    734 MOH     0.0372 ****
4710 O1      5.867842   -9.518350    3.661045 O    734 MOH    -0.6497 ****
4711 HO1     6.283534   -8.841066    4.199154 H    734 MOH     0.4215 ****
4712 HC1     3.246094  -15.571447    2.753827 H    735 MOH     0.0372 ****
4713 C1      3.408907  -15.795575    3.808124 C    735 MOH     0.1166 ****
4714 HC2     3.976442  -16.722299    3.900048 H    735 MOH     0.0372 ****
4715 HC3     2.425102  -15.913151    4.262086 H    735 MOH     0.0372 ****
4716 O1      4.101727  -14.719025    4.399972 O    735 MOH    -0.6497 ****
4717 HO1     4.940040  -14.628394    3.941767 H    735 MOH     0.4215 ****
4718 HC1     1.181490  -21.637608    7.513363 H    736 MOH     0.0372 ****
4719 C1      0.788314  -21.202824    8.431895 C    736 MOH     0.1166 ****
4720 HC2     0.604139  -20.138112    8.290474 H    736 MOH     0.0372 ****
4721 HC3     1.487485  -21.346936    9.255674 H    736 MOH     0.0372 ****
4722 O1     -0.376202  -21.863778    8.760700 O    736 MOH    -0.6497 ****
4723 HO1    -0.800554  -21.414297    9.495384 H    736 MOH     0.4215 ****
4724 HC1     2.968389  -15.676367   -6.582103 H    737 MOH     0.0372 ****
4725 C1      2.835021  -16.699029   -6.934950 C    737 MOH     0.1166 ****
4726 HC2     1.836205  -16.776596   -7.363456 H    737 MOH     0.0372 ****
4727 HC3     2.908344  -17.415913   -6.117534 H    737 MOH     0.0372 ****
4728 O1      3.755317  -16.976230   -7.946819 O    737 MOH    -0.6497 ****
4729 HO1     3.871365  -17.924182   -8.038743 H    737 MOH     0.4215 ****
4730 HC1     5.155392  -24.950952   -7.624379 H    738 MOH     0.0372 ****
4731 C1      4.418693  -24.605165   -6.899594 C    738 MOH     0.1166 ****
4732 HC2     4.147915  -25.413089   -6.218650 H    738 MOH     0.0372 ****
4733 HC3     3.509943  -24.305511   -7.420025 H    738 MOH     0.0372 ****
4734 O1      4.858634  -23.523716   -6.105513 O    738 MOH    -0.6497 ****
4735 HO1     5.806065  -23.592301   -5.969749 H    738 MOH     0.4215 ****
4736 HC1     6.103978   -8.395667   -7.272240 H    739 MOH     0.0372 ****
4737 C1      5.256428   -9.060295   -7.102534 C    739 MOH     0.1166 ****
4738 HC2     4.390980   -8.416488   -6.946263 H    739 MOH     0.0372 ****
4739 HC3     5.489100   -9.662053   -6.224307 H    739 MOH     0.0372 ****
4740 O1      5.123060   -9.762074   -8.318051 O    739 MOH    -0.6497 ****
4741 HO1     5.968878  -10.167873   -8.523111 H    739 MOH     0.4215 ****
4742 HC1     3.992608  -27.201624   -1.862165 H    740 MOH     0.0372 ****
4743 C1      5.027797  -26.897479   -2.018436 C    740 MOH     0.1166 ****
4744 HC2     5.616694  -27.800116   -2.186020 H    740 MOH     0.0372 ****
4745 HC3     5.400765  -26.340629   -1.160008 H    740 MOH     0.0372 ****
4746 O1      5.025488  -26.165899   -3.195062 O    740 MOH    -0.6497 ****
4747 HO1     5.662882  -25.456771   -3.085460 H    740 MOH     0.4215 ****
4748 HC1    17.055158  -22.009523    2.708573 H    741 MOH     0.0372 ****
4749 C1     17.439096  -21.412664    1.881258 C    741 MOH     0.1166 ****
4750 HC2    18.126720  -22.029935    1.302845 H    741 MOH     0.0372 ****
4751 HC3    17.940236  -20.550852    2.323200 H    741 MOH     0.0372 ****
4752 O1     16.373885  -20.972980    1.094248 O    741 MOH    -0.6497 ****
4753 HO1    15.844454  -21.729056    0.832619 H    741 MOH     0.4215 ****
4754 HC1     7.521373  -13.013363    7.309009 H    742 MOH     0.0372 ****
4755 C1      7.584881  -13.936413    6.732717 C    742 MOH     0.1166 ****
4756 HC2     8.616606  -14.140537    6.447046 H    742 MOH     0.0372 ****
4757 HC3     6.967694  -13.824553    5.841763 H    742 MOH     0.0372 ****
4758 O1      7.066998  -14.989693    7.497807 O    742 MOH    -0.6497 ****
4759 HO1     7.316991  -15.814355    7.073543 H    742 MOH     0.4215 ****
4760 HC1    -4.529659  -13.705752   -1.173444 H    743 MOH     0.0372 ****
4761 C1     -4.695936  -12.635325   -1.054650 C    743 MOH     0.1166 ****
4762 HC2    -4.342598  -12.314442   -0.074600 H    743 MOH     0.0372 ****
4763 HC3    -5.762879  -12.422220   -1.126775 H    743 MOH     0.0372 ****
4764 O1     -4.008889  -11.920891   -2.064398 O    743 MOH    -0.6497 ****
4765 HO1    -4.099533  -12.450797   -2.859186 H    743 MOH     0.4215 ****
4766 HC1    16.947193  -16.552876    1.444266 H    744 MOH     0.0372 ****
4767 C1     17.587475  -17.428160    1.553160 C    744 MOH     0.1166 ****
4768 HC2    17.437364  -17.829060    2.555838 H    744 MOH     0.0372 ****
4769 HC3    18.626128  -17.115442    1.447094 H    744 MOH     0.0372 ****
4770 O1     17.208156  -18.369989    0.549776 O    744 MOH    -0.6497 ****
4771 HO1    17.137142  -19.243232    0.942220 H    744 MOH     0.4215 ****
4772 HC1    -2.051672  -14.154826   -1.497299 H    745 MOH     0.0372 ****
4773 C1     -1.784359  -15.159525   -1.168494 C    745 MOH     0.1166 ****
4774 HC2    -0.839814  -15.448973   -1.628820 H    745 MOH     0.0372 ****
4775 HC3    -2.547038  -15.873143   -1.478207 H    745 MOH     0.0372 ****
4776 O1     -1.616927  -15.151768    0.260569 O    745 MOH    -0.6497 ****
4777 HO1    -2.445425  -14.963974    0.707460 H    745 MOH     0.4215 ****
4778 HC1    15.082929  -14.339354    5.865097 H    746 MOH     0.0372 ****
4779 C1     15.941449  -13.977646    5.299412 C    746 MOH     0.1166 ****
4780 HC2    15.593307  -13.458354    4.407043 H    746 MOH     0.0372 ****
4781 HC3    16.570761  -14.818229    5.005963 H    746 MOH     0.0372 ****
4782 O1     16.690850  -13.088073    6.094907 O    746 MOH    -0.6497 ****
4783 HO1    16.858281  -13.506527    6.942728 H    746 MOH     0.4215 ****
4784 HC1     9.107932  -15.270568   -9.472756 H    747 MOH     0.0372 ****
4785 C1      8.183594  -14.755359   -9.734385 C    747 MOH     0.1166 ****
4786 HC2     7.470566  -14.802307   -8.910606 H    747 MOH     0.0372 ****
4787 HC3     7.747694  -15.201574  -10.627461 H    747 MOH     0.0372 ****
4788 O1      8.421462  -13.406098  -10.013693 O    747 MOH    -0.6497 ****
4789 HO1     8.926066  -13.375888  -10.829694 H    747 MOH     0.4215 ****
4790 HC1     0.713836  -21.131789   12.731104 H    748 MOH     0.0372 ****
4791 C1      1.608151  -21.574330   13.170925 C    748 MOH     0.1166 ****
4792 HC2     1.673969  -21.301212   14.223807 H    748 MOH     0.0372 ****
4793 HC3     2.498425  -21.204457   12.661808 H    748 MOH     0.0372 ****
4794 O1      1.556767  -22.986869   13.054959 O    748 MOH    -0.6497 ****
4795 HO1     2.462052  -23.295096   13.143347 H    748 MOH     0.4215 ****
4796 HC1    -0.632545  -25.490248   -8.933233 H    749 MOH     0.0372 ****
4797 C1     -0.118703  -25.181204   -8.023187 C    749 MOH     0.1166 ****
4798 HC2     0.964406  -25.207332   -8.139152 H    749 MOH     0.0372 ****
4799 HC3    -0.421812  -25.820520   -7.193044 H    749 MOH     0.0372 ****
4800 O1     -0.558067  -23.923799   -7.740344 O    749 MOH    -0.6497 ****
4801 HO1    -0.890043  -23.561683   -8.565538 H    749 MOH     0.4215 ****
4802 HC1     7.664556  -10.191143   11.166277 H    750 MOH     0.0372 ****
4803 C1      8.102187  -11.094596   10.741306 C    750 MOH     0.1166 ****
4804 HC2     8.345829  -10.899454    9.697616 H    750 MOH     0.0372 ****
4805 HC3     7.396665  -11.920891   10.834644 H    750 MOH     0.0372 ****
4806 O1      9.238412  -11.392209   11.488718 O    750 MOH    -0.6497 ****
4807 HO1     9.865992  -10.666344   11.440634 H    750 MOH     0.4215 ****
4808 HC1     4.444673  -17.388968   10.533416 H    751 MOH     0.0372 ****
4809 C1      4.034177  -18.345494   10.856564 C    751 MOH     0.1166 ****
4810 HC2     4.813023  -19.108102   10.877777 H    751 MOH     0.0372 ****
4811 HC3     3.248981  -18.624328   10.154407 H    751 MOH     0.0372 ****
4812 O1      3.438352  -18.200974   12.112386 O    751 MOH    -0.6497 ****
4813 HO1     4.059003  -17.751901   12.690799 H    751 MOH     0.4215 ****
4814 HC1    -7.255907  -16.068285   -3.098895 H    752 MOH     0.0372 ****
4815 C1     -6.697032  -15.435909   -2.409466 C    752 MOH     0.1166 ****
4816 HC2    -6.651999  -14.435292   -2.840094 H    752 MOH     0.0372 ****
4817 HC3    -5.683782  -15.830277   -2.328856 H    752 MOH     0.0372 ****
4818 O1     -7.362140  -15.423661   -1.121118 O    752 MOH    -0.6497 ****
4819 HO1    -6.895063  -16.041749   -0.555432 H    752 MOH     0.4215 ****
4820 HC1     1.219017  -22.281416   -5.199710 H    753 MOH     0.0372 ****
4821 C1      0.336826  -21.698029   -4.938787 C    753 MOH     0.1166 ****
4822 HC2     0.641090  -20.699454   -4.627660 H    753 MOH     0.0372 ****
4823 HC3    -0.198378  -22.187927   -4.125614 H    753 MOH     0.0372 ****
4824 O1     -0.484166  -21.642916   -6.106220 O    753 MOH    -0.6497 ****
4825 HO1    -0.574810  -22.531672   -6.459067 H    753 MOH     0.4215 ****
4826 HC1     2.949336  -20.418579   -0.133289 H    754 MOH     0.0372 ****
4827 C1      2.637567  -19.375096   -0.168645 C    754 MOH     0.1166 ****
4828 HC2     3.443548  -18.717817    0.159453 H    754 MOH     0.0372 ****
4829 HC3     1.794636  -19.251805    0.510178 H    754 MOH     0.0372 ****
4830 O1      2.184347  -19.028902   -1.462650 O    754 MOH    -0.6497 ****
4831 HO1     1.973037  -18.093197   -1.432952 H    754 MOH     0.4215 ****
4832 HC1     9.645444  -12.405073    7.364164 H    755 MOH     0.0372 ****
4833 C1     10.570937  -12.105419    7.857724 C    755 MOH     0.1166 ****
4834 HC2    11.014919  -12.959475    8.369670 H    755 MOH     0.0372 ****
4835 HC3    10.324986  -11.353426    8.607257 H    755 MOH     0.0372 ****
4836 O1     11.453128  -11.606131    6.831712 O    755 MOH    -0.6497 ****
4837 HO1    11.262603  -10.667977    6.756759 H    755 MOH     0.4215 ****
4838 HC1    -1.325365  -21.247731    0.683419 H    756 MOH     0.0372 ****
4839 C1     -0.554025  -21.540854    1.396182 C    756 MOH     0.1166 ****
4840 HC2     0.343754  -21.797234    0.833325 H    756 MOH     0.0372 ****
4841 HC3    -0.884270  -22.429202    1.934998 H    756 MOH     0.0372 ****
4842 O1     -0.293640  -20.463486    2.304815 O    756 MOH    -0.6497 ****
4843 HO1    -0.959903  -20.488390    2.995658 H    756 MOH     0.4215 ****
4844 HC1    -1.454692  -20.636992    6.566547 H    757 MOH     0.0372 ****
4845 C1     -0.971450  -20.787635    5.601346 C    757 MOH     0.1166 ****
4846 HC2    -0.515920  -21.777229    5.581548 H    757 MOH     0.0372 ****
4847 HC3    -0.211079  -20.018496    5.462754 H    757 MOH     0.0372 ****
4848 O1     -2.002597  -20.738237    4.614933 O    757 MOH    -0.6497 ****
4849 HO1    -2.515284  -19.937254    4.745040 H    757 MOH     0.4215 ****
4850 HC1    -5.754797  -19.209348    0.232992 H    758 MOH     0.0372 ****
4851 C1     -5.167054  -18.293647    0.294510 C    758 MOH     0.1166 ****
4852 HC2    -4.701132  -18.082991   -0.668569 H    758 MOH     0.0372 ****
4853 HC3    -4.378394  -18.442249    1.031315 H    758 MOH     0.0372 ****
4854 O1     -5.948786  -17.168923    0.669984 O    758 MOH    -0.6497 ****
4855 HO1    -6.348890  -17.333038    1.526997 H    758 MOH     0.4215 ****
4856 HC1     8.062350   -8.536104    2.712108 H    759 MOH     0.0372 ****
4857 C1      9.008050   -8.193176    3.132130 C    759 MOH     0.1166 ****
4858 HC2     8.894312   -7.218687    3.608012 H    759 MOH     0.0372 ****
4859 HC3     9.737821   -8.079683    2.330271 H    759 MOH     0.0372 ****
4860 O1      9.449723   -9.115409    4.104401 O    759 MOH    -0.6497 ****
4861 HO1    10.281107   -9.503653    3.822266 H    759 MOH     0.4215 ****
4862 HC1     7.980366  -16.601866   -2.217133 H    760 MOH     0.0372 ****
4863 C1      8.762099  -15.928664   -2.568565 C    760 MOH     0.1166 ****
4864 HC2     9.321551  -16.363449   -3.396587 H    760 MOH     0.0372 ****
4865 HC3     9.447413  -15.723724   -1.746907 H    760 MOH     0.0372 ****
4866 O1      8.188212  -14.729231   -3.014042 O    760 MOH    -0.6497 ****
4867 HO1     8.383357  -14.085832   -2.328149 H    760 MOH     0.4215 ****
4868 HC1    12.880223    6.139034   -1.945604 H    761 MOH     0.0372 ****
4869 C1     11.843879    6.277838   -1.638720 C    761 MOH     0.1166 ****
4870 HC2    11.280385    6.641996   -2.497148 H    761 MOH     0.0372 ****
4871 HC3    11.774020    7.027790   -0.850296 H    761 MOH     0.0372 ****
4872 O1     11.318490    5.035130   -1.221527 O    761 MOH    -0.6497 ****
4873 HO1    10.555810    5.187407   -0.659377 H    761 MOH     0.4215 ****
4874 HC1     7.378652   -4.401937    2.145716 H    762 MOH     0.0372 ****
4875 C1      6.577867   -4.795897    2.771505 C    762 MOH     0.1166 ****
4876 HC2     6.012064   -5.526253    2.192385 H    762 MOH     0.0372 ****
4877 HC3     5.905254   -4.019000    3.132837 H    762 MOH     0.0372 ****
4878 O1      7.074966   -5.536867    3.815902 O    762 MOH    -0.6497 ****
4879 HO1     7.619407   -4.940825    4.334918 H    762 MOH     0.4215 ****
4880 HC1    19.487996   -3.162904    6.652107 H    763 MOH     0.0372 ****
4881 C1     19.549196   -2.383149    7.410126 C    763 MOH     0.1166 ****
4882 HC2    19.909462   -2.828956    8.337850 H    763 MOH     0.0372 ****
4883 HC3    18.556153   -1.957755    7.555790 H    763 MOH     0.0372 ****
4884 O1     20.420417   -1.360487    6.982326 O    763 MOH    -0.6497 ****
4885 HO1    21.307227   -1.720562    6.915858 H    763 MOH     0.4215 ****
4886 HC1    25.746473    1.586249    0.871509 H    764 MOH     0.0372 ****
4887 C1     26.180063    1.779350    1.852266 C    764 MOH     0.1166 ****
4888 HC2    26.465852    2.830181    1.903178 H    764 MOH     0.0372 ****
4889 HC3    27.068028    1.160038    1.978839 H    764 MOH     0.0372 ****
4890 O1     25.225703    1.464591    2.859894 O    764 MOH    -0.6497 ****
4891 HO1    25.426621    0.572976    3.152636 H    764 MOH     0.4215 ****
4892 HC1    21.739663   -8.795505   -0.124097 H    765 MOH     0.0372 ****
4893 C1     20.890958   -8.360721    0.404112 C    765 MOH     0.1166 ****
4894 HC2    20.754703   -7.333568    0.066115 H    765 MOH     0.0372 ****
4895 HC3    21.055502   -8.372968    1.481743 H    765 MOH     0.0372 ****
4896 O1     19.725287   -9.058825    0.070357 O    765 MOH    -0.6497 ****
4897 HO1    19.752423   -9.859400    0.599980 H    765 MOH     0.4215 ****
4898 HC1    13.929845    4.687711    2.723422 H    766 MOH     0.0372 ****
4899 C1     14.533754    5.239254    3.443964 C    766 MOH     0.1166 ****
4900 HC2    15.345508    4.604020    3.797517 H    766 MOH     0.0372 ****
4901 HC3    13.885389    5.525028    4.272693 H    766 MOH     0.0372 ****
4902 O1     15.038358    6.363162    2.788476 O    766 MOH    -0.6497 ****
4903 HO1    15.851267    6.624849    3.227589 H    766 MOH     0.4215 ****
4904 HC1    20.634037   -1.719746   -9.737921 H    767 MOH     0.0372 ****
4905 C1     19.841912   -2.252102   -9.211833 C    767 MOH     0.1166 ****
4906 HC2    19.869048   -1.994497   -8.153295 H    767 MOH     0.0372 ****
4907 HC3    20.007612   -3.319671   -9.353962 H    767 MOH     0.0372 ****
4908 O1     18.613311   -1.836505   -9.767619 O    767 MOH    -0.6497 ****
4909 HO1    17.918759   -2.195355   -9.209712 H    767 MOH     0.4215 ****
4910 HC1    21.330321    6.171285  -10.857271 H    768 MOH     0.0372 ****
4911 C1     21.867834    6.513806  -11.741861 C    768 MOH     0.1166 ****
4912 HC2    21.539899    5.939808  -12.608774 H    768 MOH     0.0372 ****
4913 HC3    22.927272    6.329277  -11.563671 H    768 MOH     0.0372 ****
4914 O1     21.607449    7.894501  -12.010562 O    768 MOH    -0.6497 ****
4915 HO1    21.866680    8.099442  -12.911416 H    768 MOH     0.4215 ****
4916 HC1    24.699160    4.339067   -2.215012 H    769 MOH     0.0372 ****
4917 C1     24.747657    3.251493   -2.265923 C    769 MOH     0.1166 ****
4918 HC2    24.369493    2.896726   -3.224053 H    769 MOH     0.0372 ****
4919 HC3    24.140862    2.804870   -1.478207 H    769 MOH     0.0372 ****
4920 O1     26.084223    2.817117   -2.192384 O    769 MOH    -0.6497 ****
4921 HO1    26.051892    1.857734   -2.171171 H    769 MOH     0.4215 ****
4922 HC1    15.788913    3.314364   -7.788428 H    770 MOH     0.0372 ****
4923 C1     15.834524    2.859575   -8.778377 C    770 MOH     0.1166 ****
4924 HC2    16.751934    2.280679   -8.887271 H    770 MOH     0.0372 ****
4925 HC3    15.824132    3.637288   -9.541345 H    770 MOH     0.0372 ****
4926 O1     14.731208    2.023074   -8.995459 O    770 MOH    -0.6497 ****
4927 HO1    14.990438    1.135543   -8.738072 H    770 MOH     0.4215 ****
4928 HC1    23.896066   -1.242504   -9.293151 H    771 MOH     0.0372 ****
4929 C1     24.094674   -0.281896   -8.818682 C    771 MOH     0.1166 ****
4930 HC2    25.159308   -0.064707   -8.902121 H    771 MOH     0.0372 ****
4931 HC3    23.865466   -0.317005   -7.753779 H    771 MOH     0.0372 ****
4932 O1     23.301395    0.713822   -9.469927 O    771 MOH    -0.6497 ****
4933 HO1    23.348738    1.489902   -8.906363 H    771 MOH     0.4215 ****
4934 HC1     9.470969   -2.529302   -0.847467 H    772 MOH     0.0372 ****
4935 C1     10.385492   -2.223116   -1.355170 C    772 MOH     0.1166 ****
4936 HC2    10.980740   -1.568694   -0.718067 H    772 MOH     0.0372 ****
4937 HC3    10.110096   -1.676880   -2.257438 H    772 MOH     0.0372 ****
4938 O1     11.087550   -3.362537   -1.753271 O    772 MOH    -0.6497 ****
4939 HO1    12.022280   -3.163720   -1.663469 H    772 MOH     0.4215 ****
4940 HC1    22.737324   -6.709765   -4.281178 H    773 MOH     0.0372 ****
4941 C1     22.784667   -5.986349   -3.466591 C    773 MOH     0.1166 ****
4942 HC2    21.991387   -5.258850   -3.637711 H    773 MOH     0.0372 ****
4943 HC3    23.745377   -5.472772   -3.513260 H    773 MOH     0.0372 ****
4944 O1     22.599337   -6.628115   -2.172585 O    773 MOH    -0.6497 ****
4945 HO1    22.407657   -5.952464   -1.517097 H    773 MOH     0.4215 ****
4946 HC1     6.416786   -2.866924   -5.703170 H    774 MOH     0.0372 ****
4947 C1      6.459510   -2.625241   -4.641095 C    774 MOH     0.1166 ****
4948 HC2     7.496431   -2.687294   -4.310169 H    774 MOH     0.0372 ****
4949 HC3     5.861953   -3.327019   -4.059146 H    774 MOH     0.0372 ****
4950 O1      6.025920   -1.331502   -4.371688 O    774 MOH    -0.6497 ****
4951 HO1     5.256312   -1.140033   -4.912624 H    774 MOH     0.4215 ****
4952 HC1    17.402607    6.628932   -0.218849 H    775 MOH     0.0372 ****
4953 C1     16.736922    7.487886   -0.133997 C    775 MOH     0.1166 ****
4954 HC2    15.694805    7.167819   -0.141068 H    775 MOH     0.0372 ****
4955 HC3    16.872022    8.112506   -1.016466 H    775 MOH     0.0372 ****
4956 O1     16.962666    8.284787    1.069499 O    775 MOH    -0.6497 ****
4957 HO1    16.889920    7.717730    1.839538 H    775 MOH     0.4215 ****
4958 HC1    17.477085   -4.025124    8.731001 H    776 MOH     0.0372 ****
4959 C1     17.776730   -5.072281    8.716152 C    776 MOH     0.1166 ****
4960 HC2    18.410661   -5.260892    7.849239 H    776 MOH     0.0372 ****
4961 HC3    16.908973   -5.726295    8.636956 H    776 MOH     0.0372 ****
4962 O1     18.481675   -5.383366    9.909748 O    776 MOH    -0.6497 ****
4963 HO1    18.915842   -6.231706    9.790954 H    776 MOH     0.4215 ****
4964 HC1     9.726158   -0.757505   -5.316382 H    777 MOH     0.0372 ****
4965 C1      9.185758    0.112064   -5.689735 C    777 MOH     0.1166 ****
4966 HC2     8.742353   -0.217392   -6.629480 H    777 MOH     0.0372 ****
4967 HC3     9.908601    0.915089   -5.836106 H    777 MOH     0.0372 ****
4968 O1      8.194448    0.450502   -4.696250 O    777 MOH    -0.6497 ****
4969 HO1     7.558785   -0.263524   -4.613518 H    777 MOH     0.4215 ****
4970 HC1    24.282890   -9.372768   -3.676601 H    778 MOH     0.0372 ****
4971 C1     23.602772   -9.941458   -3.042327 C    778 MOH     0.1166 ****
4972 HC2    23.957265   -9.904308   -2.012072 H    778 MOH     0.0372 ****
4973 HC3    23.547924  -10.978001   -3.373960 H    778 MOH     0.0372 ****
4974 O1     22.370129   -9.318471   -3.124351 O    778 MOH    -0.6497 ****
4975 HO1    22.472320   -8.425632   -2.788475 H    778 MOH     0.4215 ****
4976 HC1    14.343228   10.882879    2.514825 H    779 MOH     0.0372 ****
4977 C1     13.888854   11.180900    1.570131 C    779 MOH     0.1166 ****
4978 HC2    12.808054   11.046178    1.618214 H    779 MOH     0.0372 ****
4979 HC3    14.311474   10.556280    0.782414 H    779 MOH     0.0372 ****
4980 O1     14.170600   12.538326    1.310622 O    779 MOH    -0.6497 ****
4981 HO1    13.900978   12.732652    0.409768 H    779 MOH     0.4215 ****
4982 HC1    15.384191   13.796547    5.638116 H    780 MOH     0.0372 ****
4983 C1     15.042399   13.127020    4.848985 C    780 MOH     0.1166 ****
4984 HC2    14.544146   12.250919    5.264764 H    780 MOH     0.0372 ****
4985 HC3    15.914776   12.808994    4.278350 H    780 MOH     0.0372 ****
4986 O1     14.261244   13.856968    3.926918 O    780 MOH    -0.6497 ****
4987 HO1    14.288380   13.369927    3.100310 H    780 MOH     0.4215 ****
4988 HC1    18.150853   -2.909381    1.307087 H    781 MOH     0.0372 ****
4989 C1     18.010557   -3.063699    0.237942 C    781 MOH     0.1166 ****
4990 HC2    17.814258   -2.109215   -0.251376 H    781 MOH     0.0372 ****
4991 HC3    17.176286   -3.742616    0.061872 H    781 MOH     0.0372 ****
4992 O1     19.186042   -3.618100   -0.313602 O    781 MOH    -0.6497 ****
4993 HO1    19.832675   -3.718938    0.388555 H    781 MOH     0.4215 ****
4994 HC1    20.914052    5.126986    2.597557 H    782 MOH     0.0372 ****
4995 C1     21.396716    4.161071    2.450479 C    782 MOH     0.1166 ****
4996 HC2    20.623644    3.407036    2.302693 H    782 MOH     0.0372 ****
4997 HC3    21.961365    3.918571    3.349919 H    782 MOH     0.0372 ****
4998 O1     22.304888    4.188832    1.327593 O    782 MOH    -0.6497 ****
4999 HO1    23.016184    4.793039    1.556696 H    782 MOH     0.4215 ****
5000 HC1    24.612557   -8.998405    1.552453 H    783 MOH     0.0372 ****
5001 C1     24.446281   -8.911448    2.626548 C    783 MOH     0.1166 ****
5002 HC2    24.518449   -7.855309    2.886057 H    783 MOH     0.0372 ****
5003 HC3    25.233209   -9.465441    3.139201 H    783 MOH     0.0372 ****
5004 O1     23.120684   -9.430331    2.860601 O    783 MOH    -0.6497 ****
5005 HO1    22.809493   -9.081687    3.699229 H    783 MOH     0.4215 ****
5006 HC1    23.478641    8.398688   10.733528 H    784 MOH     0.0372 ****
5007 C1     22.767346    7.572802   10.722921 C    784 MOH     0.1166 ****
5008 HC2    23.129345    6.841629    9.999551 H    784 MOH     0.0372 ****
5009 HC3    21.778345    7.945124   10.452806 H    784 MOH     0.0372 ****
5010 O1     22.703837    6.999213   12.007734 O    784 MOH    -0.6497 ****
5011 HO1    22.427864    7.683029   12.622210 H    784 MOH     0.4215 ****
5012 HC1    19.408322    9.928394   -6.274512 H    785 MOH     0.0372 ****
5013 C1     18.827508   10.309698   -5.434469 C    785 MOH     0.1166 ****
5014 HC2    19.124843   11.316847   -5.142434 H    785 MOH     0.0372 ****
5015 HC3    19.035354    9.654460   -4.588062 H    785 MOH     0.0372 ****
5016 O1     17.448218   10.266016   -5.719433 O    785 MOH    -0.6497 ****
5017 HO1    17.042918    9.591181   -5.170011 H    785 MOH     0.4215 ****
5018 HC1    24.206103   -2.860392    0.370878 H    786 MOH     0.0372 ****
5019 C1     24.189360   -3.867540   -0.047022 C    786 MOH     0.1166 ****
5020 HC2    24.691077   -4.526045    0.660792 H    786 MOH     0.0372 ****
5021 HC3    24.740729   -3.896118   -0.987474 H    786 MOH     0.0372 ****
5022 O1     22.846443   -4.303141   -0.196222 O    786 MOH    -0.6497 ****
5023 HO1    22.354541   -4.042270    0.586545 H    786 MOH     0.4215 ****
5024 HC1    18.340801    0.930602   -0.497449 H    787 MOH     0.0372 ****
5025 C1     17.277322    1.131460   -0.628971 C    787 MOH     0.1166 ****
5026 HC2    16.695353    0.210452   -0.602101 H    787 MOH     0.0372 ****
5027 HC3    17.112200    1.602170   -1.598415 H    787 MOH     0.0372 ****
5028 O1     16.826989    2.021850    0.350372 O    787 MOH    -0.6497 ****
5029 HO1    16.937263    2.916322    0.020153 H    787 MOH     0.4215 ****
5030 HC1    22.053741    3.858150   -3.294057 H    788 MOH     0.0372 ****
5031 C1     21.649596    4.203937   -4.245115 C    788 MOH     0.1166 ****
5032 HC2    20.716598    3.680562   -4.457247 H    788 MOH     0.0372 ****
5033 HC3    22.370706    4.059009   -5.049096 H    788 MOH     0.0372 ****
5034 O1     21.403067    5.569936   -4.090966 O    788 MOH    -0.6497 ****
5035 HO1    22.227524    6.025541   -3.902876 H    788 MOH     0.4215 ****
5036 HC1    17.821186   -7.397663    1.909542 H    789 MOH     0.0372 ****
5037 C1     17.635279   -6.811827    1.009395 C    789 MOH     0.1166 ****
5038 HC2    17.653177   -7.435630    0.115612 H    789 MOH     0.0372 ****
5039 HC3    18.382948   -6.026357    0.900501 H    789 MOH     0.0372 ****
5040 O1     16.392822   -6.223541    1.138796 O    789 MOH    -0.6497 ****
5041 HO1    16.094332   -6.112906    0.232992 H    789 MOH     0.4215 ****
5042 HC1    19.005909   -3.822633    3.328705 H    790 MOH     0.0372 ****
5043 C1     19.759928   -4.576259    3.101017 C    790 MOH     0.1166 ****
5044 HC2    19.273799   -5.465832    2.701502 H    790 MOH     0.0372 ****
5045 HC3    20.248944   -4.865707    4.030862 H    790 MOH     0.0372 ****
5046 O1     20.694081   -4.034105    2.156322 O    790 MOH    -0.6497 ****
5047 HO1    20.910587   -3.136367    2.415831 H    790 MOH     0.4215 ****
5048 HC1    17.251342    4.530127   -5.757617 H    791 MOH     0.0372 ****
5049 C1     17.014051    4.243537   -4.732312 C    791 MOH     0.1166 ****
5050 HC2    17.776153    3.580950   -4.322897 H    791 MOH     0.0372 ****
5051 HC3    16.060845    3.714855   -4.751404 H    791 MOH     0.0372 ****
5052 O1     16.912437    5.369894   -3.894390 O    791 MOH    -0.6497 ****
5053 HO1    17.686086    5.926336   -4.013892 H    791 MOH     0.4215 ****
5054 HC1    14.348424   -6.046770    2.816760 H    792 MOH     0.0372 ****
5055 C1     14.436759   -5.060850    3.272844 C    792 MOH     0.1166 ****
5056 HC2    13.835737   -5.029007    4.180769 H    792 MOH     0.0372 ****
5057 HC3    14.084575   -4.325595    2.549474 H    792 MOH     0.0372 ****
5058 O1     15.776789   -4.857134    3.580435 O    792 MOH    -0.6497 ****
5059 HO1    16.261763   -5.323762    2.896663 H    792 MOH     0.4215 ****
5060 HC1    24.293283    5.745482   -4.960707 H    793 MOH     0.0372 ****
5061 C1     24.713594    6.628932   -4.479875 C    793 MOH     0.1166 ****
5062 HC2    24.967051    7.370719   -5.237186 H    793 MOH     0.0372 ****
5063 HC3    25.600404    6.346016   -3.913482 H    793 MOH     0.0372 ****
5064 O1     23.708427    7.125362   -3.656803 O    793 MOH    -0.6497 ****
5065 HO1    24.064652    7.321729   -2.787768 H    793 MOH     0.4215 ****
5066 HC1    18.644488    8.053310    7.615187 H    794 MOH     0.0372 ****
5067 C1     18.601764    8.927370    6.965355 C    794 MOH     0.1166 ****
5068 HC2    19.402549    9.627515    7.203650 H    794 MOH     0.0372 ****
5069 HC3    17.662415    9.443395    7.160517 H    794 MOH     0.0372 ****
5070 O1     18.602341    8.573010    5.573769 O    794 MOH    -0.6497 ****
5071 HO1    18.711460    9.365420    5.042732 H    794 MOH     0.4215 ****
5072 HC1    16.311993  -10.884104    3.630640 H    795 MOH     0.0372 ****
5073 C1     17.388173  -10.875939    3.460934 C    795 MOH     0.1166 ****
5074 HC2    17.808484  -10.015759    3.980658 H    795 MOH     0.0372 ****
5075 HC3    17.591978  -10.815518    2.391789 H    795 MOH     0.0372 ****
5076 O1     17.981690  -12.020667    3.961566 O    795 MOH    -0.6497 ****
5077 HO1    17.519809  -12.281946    4.760597 H    795 MOH     0.4215 ****
5078 HC1    12.958165    3.783849   -3.770647 H    796 MOH     0.0372 ****
5079 C1     12.375619    2.911014   -3.475076 C    796 MOH     0.1166 ****
5080 HC2    12.711636    1.996130   -3.962273 H    796 MOH     0.0372 ****
5081 HC3    11.355441    3.091052   -3.812366 H    796 MOH     0.0372 ****
5082 O1     12.368690    2.764045   -2.072176 O    796 MOH    -0.6497 ****
5083 HO1    12.182206    3.625857   -1.691046 H    796 MOH     0.4215 ****
5084 HC1    12.127358    0.769344    0.500278 H    797 MOH     0.0372 ****
5085 C1     13.159083    0.485611    0.294510 C    797 MOH     0.1166 ****
5086 HC2    13.429860   -0.340275    0.951412 H    797 MOH     0.0372 ****
5087 HC3    13.807447    1.336401    0.505228 H    797 MOH     0.0372 ****
5088 O1     13.297070    0.166361   -1.067378 O    797 MOH    -0.6497 ****
5089 HO1    13.000311    0.959179   -1.519926 H    797 MOH     0.4215 ****
5090 HC1    17.621423    0.041845   -5.186275 H    798 MOH     0.0372 ****
5091 C1     17.635857    0.749340   -6.015711 C    798 MOH     0.1166 ****
5092 HC2    16.645124    1.180450   -6.157132 H    798 MOH     0.0372 ****
5093 HC3    17.974761    0.256176   -6.926464 H    798 MOH     0.0372 ****
5094 O1     18.512852    1.800987   -5.708826 O    798 MOH    -0.6497 ****
5095 HO1    18.709151    1.807928   -4.769082 H    798 MOH     0.4215 ****
5096 HC1    23.752883   -3.792831    8.143395 H    799 MOH     0.0372 ****
5097 C1     23.827938   -2.750981    7.833683 C    799 MOH     0.1166 ****
5098 HC2    24.866591   -2.526444    7.590438 H    799 MOH     0.0372 ****
5099 HC3    23.465940   -2.149631    8.668776 H    799 MOH     0.0372 ****
5100 O1     22.939974   -2.593397    6.757466 O    799 MOH    -0.6497 ****
5101 HO1    23.307168   -3.113914    6.039753 H    799 MOH     0.4215 ****
5102 HC1    13.477780   -7.705482    8.692110 H    800 MOH     0.0372 ****
5103 C1     14.470245   -7.684662    8.241683 C    800 MOH     0.1166 ****
5104 HC2    14.993325   -6.773451    8.531597 H    800 MOH     0.0372 ****
5105 HC3    14.410201   -7.740183    7.155567 H    800 MOH     0.0372 ****
5106 O1     15.205212   -8.749373    8.689989 O    800 MOH    -0.6497 ****
5107 HO1    14.758343   -9.545457    8.394418 H    800 MOH     0.4215 ****
5108 HC1    11.417794    4.524003    1.697410 H    801 MOH     0.0372 ****
5109 C1     11.178194    3.891219    2.551595 C    801 MOH     0.1166 ****
5110 HC2    10.132613    4.015734    2.832316 H    801 MOH     0.0372 ****
5111 HC3    11.810393    4.198630    3.385274 H    801 MOH     0.0372 ****
5112 O1     11.480148    2.541141    2.235518 O    801 MOH    -0.6497 ****
5113 HO1    11.017691    2.268023    1.440023 H    801 MOH     0.4215 ****
5114 HC1    22.375325    4.680362   -7.835097 H    802 MOH     0.0372 ****
5115 C1     23.118952    4.159438   -8.437551 C    802 MOH     0.1166 ****
5116 HC2    24.034630    4.748948   -8.485635 H    802 MOH     0.0372 ****
5117 HC3    22.782935    4.038188   -9.467806 H    802 MOH     0.0372 ****
5118 O1     23.457280    2.930610   -7.853481 O    802 MOH    -0.6497 ****
5119 HO1    22.753490    2.659125   -7.260219 H    802 MOH     0.4215 ****
5120 HC1    23.091240   -0.996738   -3.175263 H    803 MOH     0.0372 ****
5121 C1     23.051980   -2.066349   -3.380324 C    803 MOH     0.1166 ****
5122 HC2    22.273712   -2.494601   -2.748877 H    803 MOH     0.0372 ****
5123 HC3    24.020773   -2.502766   -3.136372 H    803 MOH     0.0372 ****
5124 O1     22.763305   -2.358246   -4.748575 O    803 MOH    -0.6497 ****
5125 HO1    23.192853   -3.172702   -5.020811 H    803 MOH     0.4215 ****
5126 HC1    27.252780   -2.316605   -5.421741 H    804 MOH     0.0372 ****
5127 C1     26.730278   -1.387432   -5.194053 C    804 MOH     0.1166 ****
5128 HC2    25.697976   -1.600537   -4.915453 H    804 MOH     0.0372 ****
5129 HC3    26.770693   -0.741175   -6.070158 H    804 MOH     0.0372 ****
5130 O1     27.417902   -0.824049   -4.127736 O    804 MOH    -0.6497 ****
5131 HO1    27.880360   -1.539300   -3.685087 H    804 MOH     0.4215 ****
5132 HC1    20.653089   -7.102500    4.218246 H    805 MOH     0.0372 ****
5133 C1     20.904237   -7.623016    5.142434 C    805 MOH     0.1166 ****
5134 HC2    20.237397   -8.476663    5.263350 H    805 MOH     0.0372 ****
5135 HC3    20.781261   -6.953081    5.993084 H    805 MOH     0.0372 ****
5136 O1     22.244267   -8.053718    5.045561 O    805 MOH    -0.6497 ****
5137 HO1    22.434215   -8.609344    5.804286 H    805 MOH     0.4215 ****
5138 HC1    22.125910   -0.172077   -5.802872 H    806 MOH     0.0372 ****
5139 C1     21.188870    0.083895   -6.295725 C    806 MOH     0.1166 ****
5140 HC2    20.350558   -0.248011   -5.682663 H    806 MOH     0.0372 ****
5141 HC3    21.170395   -0.414984   -7.264461 H    806 MOH     0.0372 ****
5142 O1     21.158271    1.467448   -6.512807 O    806 MOH    -0.6497 ****
5143 HO1    20.242016    1.708723   -6.664835 H    806 MOH     0.4215 ****
5144 HC1    12.179319   -0.874264    3.439014 H    807 MOH     0.0372 ****
5145 C1     11.169534   -0.474997    3.530938 C    807 MOH     0.1166 ****
5146 HC2    10.556965   -1.216376    4.044297 H    807 MOH     0.0372 ****
5147 HC3    10.768275   -0.283120    2.535331 H    807 MOH     0.0372 ****
5148 O1     11.237661    0.713822    4.293199 O    807 MOH    -0.6497 ****
5149 HO1    11.571947    1.407028    3.719028 H    807 MOH     0.4215 ****
5150 HC1    18.796331   -4.882037   -7.510534 H    808 MOH     0.0372 ****
5151 C1     19.101749   -5.862241   -7.877523 C    808 MOH     0.1166 ****
5152 HC2    20.050913   -5.782633   -8.407146 H    808 MOH     0.0372 ****
5153 HC3    18.335028   -6.254568   -8.544325 H    808 MOH     0.0372 ****
5154 O1     19.255324   -6.782841   -6.803428 O    808 MOH    -0.6497 ****
5155 HO1    20.104607   -7.216809   -6.911615 H    808 MOH     0.4215 ****
5156 HC1    24.637384   -7.530344   -0.837568 H    809 MOH     0.0372 ****
5157 C1     25.508605   -7.026974   -1.256882 C    809 MOH     0.1166 ****
5158 HC2    25.210692   -6.077796   -1.700238 H    809 MOH     0.0372 ****
5159 HC3    25.947391   -7.638530   -2.046013 H    809 MOH     0.0372 ****
5160 O1     26.477399   -6.751814   -0.271175 O    809 MOH    -0.6497 ****
5161 HO1    26.907525   -7.589948   -0.088034 H    809 MOH     0.4215 ****
5162 HC1     7.923093    6.361937    1.862873 H    810 MOH     0.0372 ****
5163 C1      8.785655    6.824891    1.383454 C    810 MOH     0.1166 ****
5164 HC2     9.572583    6.939609    2.129452 H    810 MOH     0.0372 ****
5165 HC3     8.468689    7.816934    1.061014 H    810 MOH     0.0372 ****
5166 O1      9.168438    6.037380    0.224506 O    810 MOH    -0.6497 ****
5167 HO1     8.474463    6.083512   -0.436638 H    810 MOH     0.4215 ****
5168 HC1    14.609387    1.799354    8.123596 H    811 MOH     0.0372 ****
5169 C1     15.217336    2.670148    7.875402 C    811 MOH     0.1166 ****
5170 HC2    16.266959    2.400704    7.760851 H    811 MOH     0.0372 ****
5171 HC3    15.160756    3.392339    8.690696 H    811 MOH     0.0372 ****
5172 O1     14.822429    3.232306    6.665542 O    811 MOH    -0.6497 ****
5173 HO1    15.104176    2.633814    5.969749 H    811 MOH     0.4215 ****
5174 HC1    16.082207   -1.206578  -12.585440 H    812 MOH     0.0372 ****
5175 C1     17.005968   -1.018375  -13.133448 C    812 MOH     0.1166 ****
5176 HC2    17.596597   -1.933260  -13.095971 H    812 MOH     0.0372 ****
5177 HC3    17.528470   -0.194939  -12.646251 H    812 MOH     0.0372 ****
5178 O1     16.732881   -0.666057  -14.487557 O    812 MOH    -0.6497 ****
5179 HO1    17.514613   -0.243928  -14.851010 H    812 MOH     0.4215 ****
5180 HC1    20.190054    8.049227   -2.564323 H    813 MOH     0.0372 ****
5181 C1     19.175073    7.665882   -2.668267 C    813 MOH     0.1166 ****
5182 HC2    18.453962    8.483195   -2.647054 H    813 MOH     0.0372 ****
5183 HC3    18.940091    6.971044   -1.862166 H    813 MOH     0.0372 ****
5184 O1     19.047478    6.953897   -3.850550 O    813 MOH    -0.6497 ****
5185 HO1    19.768011    6.320704   -3.882370 H    813 MOH     0.4215 ****
5186 HC1    23.064104   -0.232906    4.695543 H    814 MOH     0.0372 ****
5187 C1     22.441720    0.661566    4.686350 C    814 MOH     0.1166 ****
5188 HC2    22.885703    1.448669    5.295876 H    814 MOH     0.0372 ****
5189 HC3    21.470040    0.383549    5.095765 H    814 MOH     0.0372 ****
5190 O1     22.262164    1.114314    3.364768 O    814 MOH    -0.6497 ****
5191 HO1    23.119530    1.389881    3.031721 H    814 MOH     0.4215 ****
5192 HC1    19.048056    5.413985   -6.785043 H    815 MOH     0.0372 ****
5193 C1     19.640994    5.075547   -7.634278 C    815 MOH     0.1166 ****
5194 HC2    20.008189    4.079829   -7.386084 H    815 MOH     0.0372 ****
5195 HC3    20.487967    5.745482   -7.786306 H    815 MOH     0.0372 ****
5196 O1     18.836745    5.024516   -8.804540 O    815 MOH    -0.6497 ****
5197 HO1    19.243777    4.374176   -9.382246 H    815 MOH     0.4215 ****
5198 HC1    14.804531    5.734868   -1.122532 H    816 MOH     0.0372 ****
5199 C1     14.985819    4.696692   -0.843225 C    816 MOH     0.1166 ****
5200 HC2    14.326485    4.059417   -1.432245 H    816 MOH     0.0372 ****
5201 HC3    14.761230    4.541966    0.212486 H    816 MOH     0.0372 ****
5202 O1     16.316034    4.301100   -1.084348 O    816 MOH    -0.6497 ****
5203 HO1    16.495590    4.409286   -2.021265 H    816 MOH     0.4215 ****
5204 HC1    18.692985   -0.053276    2.536039 H    817 MOH     0.0372 ****
5205 C1     19.146782    0.826090    2.992830 C    817 MOH     0.1166 ****
5206 HC2    19.983940    1.142891    2.370576 H    817 MOH     0.0372 ****
5207 HC3    19.450469    0.577059    4.009649 H    817 MOH     0.0372 ****
5208 O1     18.196464    1.823849    2.957474 O    817 MOH    -0.6497 ****
5209 HO1    17.868529    1.879371    2.056620 H    817 MOH     0.4215 ****
5210 HC1    10.525788   11.419317    0.206829 H    818 MOH     0.0372 ****
5211 C1      9.618194   11.355630    0.806455 C    818 MOH     0.1166 ****
5212 HC2     9.007357   10.508923    0.493914 H    818 MOH     0.0372 ****
5213 HC3     9.069133   12.287661    0.674226 H    818 MOH     0.0372 ****
5214 O1      9.990007   11.172327    2.130866 O    818 MOH    -0.6497 ****
5215 HO1    10.517128   10.369711    2.129452 H    818 MOH     0.4215 ****
5216 HC1    26.055933    3.265782    7.912879 H    819 MOH     0.0372 ****
5217 C1     25.803054    4.130452    8.526647 C    819 MOH     0.1166 ****
5218 HC2    26.610767    4.313756    9.234461 H    819 MOH     0.0372 ****
5219 HC3    24.885067    3.897751    9.065463 H    819 MOH     0.0372 ****
5220 O1     25.610796    5.238846    7.670341 O    819 MOH    -0.6497 ****
5221 HO1    24.925481    4.967769    7.055158 H    819 MOH     0.4215 ****
5222 HC1    22.315281   -3.993689    4.378759 H    820 MOH     0.0372 ****
5223 C1     23.138005   -4.684445    4.193497 C    820 MOH     0.1166 ****
5224 HC2    23.413401   -4.563195    3.146272 H    820 MOH     0.0372 ****
5225 HC3    22.829700   -5.724253    4.300270 H    820 MOH     0.0372 ****
5226 O1     24.228042   -4.373768    5.078088 O    820 MOH    -0.6497 ****
5227 HO1    24.838879   -5.114330    5.090816 H    820 MOH     0.4215 ****
5228 HC1    18.062519   -2.652185   -4.816458 H    821 MOH     0.0372 ****
5229 C1     18.989743   -2.828957   -4.272693 C    821 MOH     0.1166 ****
5230 HC2    18.923925   -3.753639   -3.699229 H    821 MOH     0.0372 ****
5231 HC3    19.213178   -1.992456   -3.610133 H    821 MOH     0.0372 ****
5232 O1     19.993178   -2.931019   -5.203245 O    821 MOH    -0.6497 ****
5233 HO1    20.803200   -2.590131   -4.816458 H    821 MOH     0.4215 ****
5234 HC1    27.149434   -3.035938    3.313856 H    822 MOH     0.0372 ****
5235 C1     26.318050   -2.352531    3.144151 C    822 MOH     0.1166 ****
5236 HC2    25.396022   -2.812627    3.501239 H    822 MOH     0.0372 ****
5237 HC3    26.247613   -2.164328    2.072884 H    822 MOH     0.0372 ****
5238 O1     26.645985   -1.131868    3.796103 O    822 MOH    -0.6497 ****
5239 HO1    27.259131   -1.329052    4.508160 H    822 MOH     0.4215 ****
5240 HC1    19.656005   -0.806494   11.797016 H    823 MOH     0.0372 ****
5241 C1     18.764576   -0.179833   11.765196 C    823 MOH     0.1166 ****
5242 HC2    17.876034   -0.810577   11.724891 H    823 MOH     0.0372 ****
5243 HC3    18.773814    0.438255   10.867171 H    823 MOH     0.0372 ****
5244 O1     18.774969    0.667690   12.886668 O    823 MOH    -0.6497 ****
5245 HO1    19.530720    1.247811   12.769995 H    823 MOH     0.4215 ****
5246 HC1    26.909257   -0.209636   -0.663619 H    824 MOH     0.0372 ****
5247 C1     25.899471   -0.530519   -0.919592 C    824 MOH     0.1166 ****
5248 HC2    25.202032   -0.099817   -0.200465 H    824 MOH     0.0372 ****
5249 HC3    25.818065   -1.616867   -0.884944 H    824 MOH     0.0372 ****
5250 O1     25.544401   -0.071239   -2.191677 O    824 MOH    -0.6497 ****
5251 HO1    26.143113   -0.478671   -2.821002 H    824 MOH     0.4215 ****
5252 HC1    21.313001    0.455401   10.383510 H    825 MOH     0.0372 ****
5253 C1     21.537590    1.521337   10.433714 C    825 MOH     0.1166 ****
5254 HC2    21.178478    2.069207    9.562559 H    825 MOH     0.0372 ****
5255 HC3    22.623586    1.567878   10.361589 H    825 MOH     0.0372 ****
5256 O1     21.176746    2.119421   11.700143 O    825 MOH    -0.6497 ****
5257 HO1    21.104577    3.068190   11.574278 H    825 MOH     0.4215 ****
5258 HC1    20.399633  -12.995564    1.751150 H    826 MOH     0.0372 ****
5259 C1     20.981024  -12.238263    2.277945 C    826 MOH     0.1166 ****
5260 HC2    22.034688  -12.482396    2.140766 H    826 MOH     0.0372 ****
5261 HC3    20.751239  -12.227649    3.342848 H    826 MOH     0.0372 ****
5262 O1     20.852852  -10.978001    1.725694 O    826 MOH    -0.6497 ****
5263 HO1    21.651328  -10.501575    1.966818 H    826 MOH     0.4215 ****
5264 HC1    15.555086   -1.638504    6.833127 H    827 MOH     0.0372 ****
5265 C1     15.900342   -2.481537    6.235621 C    827 MOH     0.1166 ****
5266 HC2    16.640505   -3.013485    6.834541 H    827 MOH     0.0372 ****
5267 HC3    16.342015   -2.095743    5.317090 H    827 MOH     0.0372 ****
5268 O1     14.847832   -3.399279    5.901867 O    827 MOH    -0.6497 ****
5269 HO1    15.126692   -3.912447    5.140313 H    827 MOH     0.4215 ****
5270 HC1    22.712498    6.898784    0.610587 H    828 MOH     0.0372 ****
5271 C1     22.220018    7.335201   -0.258447 C    828 MOH     0.1166 ****
5272 HC2    21.277782    7.822650   -0.008132 H    828 MOH     0.0372 ****
5273 HC3    21.967716    6.500742   -0.913228 H    828 MOH     0.0372 ****
5274 O1     23.057753    8.260292   -0.958483 O    828 MOH    -0.6497 ****
5275 HO1    22.516776    8.960029   -1.330421 H    828 MOH     0.4215 ****
5276 HC1    20.620180  -13.318080   -2.911512 H    829 MOH     0.0372 ****
5277 C1     20.587271  -12.232956   -3.010507 C    829 MOH     0.1166 ****
5278 HC2    21.032408  -11.763879   -2.132987 H    829 MOH     0.0372 ****
5279 HC3    19.549773  -11.907174   -3.085460 H    829 MOH     0.0372 ****
5280 O1     21.273164  -11.855735   -4.175819 O    829 MOH    -0.6497 ****
5281 HO1    21.374777  -10.902475   -4.135514 H    829 MOH     0.4215 ****
5282 HC1    29.053536   -4.501142   -1.728522 H    830 MOH     0.0372 ****
5283 C1     28.147673   -4.176584   -2.239760 C    830 MOH     0.1166 ****
5284 HC2    27.262018   -4.569319   -1.740543 H    830 MOH     0.0372 ****
5285 HC3    28.155179   -4.524820   -3.272843 H    830 MOH     0.0372 ****
5286 O1     28.054720   -2.784457   -2.225618 O    830 MOH    -0.6497 ****
5287 HO1    28.324920   -2.499092   -1.349513 H    830 MOH     0.4215 ****
5288 HC1    21.587819    0.062666    0.256326 H    831 MOH     0.0372 ****
5289 C1     22.251195   -0.759138    0.525734 C    831 MOH     0.1166 ****
5290 HC2    23.267331   -0.372935    0.603516 H    831 MOH     0.0372 ****
5291 HC3    22.237338   -1.541750   -0.232991 H    831 MOH     0.0372 ****
5292 O1     21.873030   -1.186165    1.812668 O    831 MOH    -0.6497 ****
5293 HO1    21.926724   -0.417026    2.384011 H    831 MOH     0.4215 ****
5294 HC1    25.367732    6.261916    4.359667 H    832 MOH     0.0372 ****
5295 C1     25.028250    5.516047    3.640539 C    832 MOH     0.1166 ****
5296 HC2    24.521913    4.678730    4.122079 H    832 MOH     0.0372 ****
5297 HC3    25.915060    5.119229    3.145565 H    832 MOH     0.0372 ****
5298 O1     24.187050    6.136584    2.685945 O    832 MOH    -0.6497 ****
5299 HO1    24.716480    6.821625    2.270167 H    832 MOH     0.4215 ****
5300 HC1    16.074124   -0.974285   -4.621296 H    833 MOH     0.0372 ****
5301 C1     15.443658   -1.287819   -3.789739 C    833 MOH     0.1166 ****
5302 HC2    14.467359   -1.600537   -4.160263 H    833 MOH     0.0372 ****
5303 HC3    15.273340   -0.460708   -3.099602 H    833 MOH     0.0372 ****
5304 O1     16.045834   -2.341916   -3.093946 O    833 MOH    -0.6497 ****
5305 HO1    15.395160   -2.696276   -2.484420 H    833 MOH     0.4215 ****
5306 HC1    18.736286    3.758130   -1.477499 H    834 MOH     0.0372 ****
5307 C1     19.392734    4.033697   -0.652306 C    834 MOH     0.1166 ****
5308 HC2    18.845983    3.997771    0.290975 H    834 MOH     0.0372 ****
5309 HC3    19.739144    5.056359   -0.802920 H    834 MOH     0.0372 ****
5310 O1     20.511638    3.161679   -0.587252 O    834 MOH    -0.6497 ****
5311 HO1    21.116702    3.488278    0.083085 H    834 MOH     0.4215 ****
5312 HC1    22.512734    8.472989    6.290069 H    835 MOH     0.0372 ****
5313 C1     22.200965    8.054126    7.247491 C    835 MOH     0.1166 ****
5314 HC2    21.673845    8.800404    7.840047 H    835 MOH     0.0372 ****
5315 HC3    23.093549    7.720588    7.775700 H    835 MOH     0.0372 ****
5316 O1     21.386324    6.940017    7.020510 O    835 MOH    -0.6497 ****
5317 HO1    20.700432    7.181292    6.394720 H    835 MOH     0.4215 ****
5318 HC1    15.192510   13.867174   -1.429416 H    836 MOH     0.0372 ****
5319 C1     14.284916   14.246845   -1.898935 C    836 MOH     0.1166 ****
5320 HC2    14.415397   14.226841   -2.981516 H    836 MOH     0.0372 ****
5321 HC3    14.141733   15.277672   -1.577202 H    836 MOH     0.0372 ****
5322 O1     13.144649   13.453618   -1.524876 O    836 MOH    -0.6497 ****
5323 HO1    12.371577   13.958621   -1.787212 H    836 MOH     0.4215 ****
5324 HC1     8.074359   -6.309681   -1.424466 H    837 MOH     0.0372 ****
5325 C1      8.718105   -5.525436   -1.821153 C    837 MOH     0.1166 ****
5326 HC2     8.752168   -4.724045   -1.083641 H    837 MOH     0.0372 ****
5327 HC3     8.319156   -5.085345   -2.736150 H    837 MOH     0.0372 ****
5328 O1     10.029844   -5.990023   -2.051670 O    837 MOH    -0.6497 ****
5329 HO1    10.472095   -5.202920   -2.376939 H    837 MOH     0.4215 ****
5330 HC1    17.350068    5.397247    5.082330 H    838 MOH     0.0372 ****
5331 C1     17.932037    5.639746    4.192790 C    838 MOH     0.1166 ****
5332 HC2    17.895664    4.817942    3.477905 H    838 MOH     0.0372 ****
5333 HC3    18.959144    5.783041    4.530080 H    838 MOH     0.0372 ****
5334 O1     17.466116    6.884087    3.661045 O    838 MOH    -0.6497 ****
5335 HO1    17.881808    7.561371    4.199154 H    838 MOH     0.4215 ****
5336 HC1    14.844368    0.830989    2.753827 H    839 MOH     0.0372 ****
5337 C1     15.007181    0.606861    3.808124 C    839 MOH     0.1166 ****
5338 HC2    15.574716   -0.319863    3.900048 H    839 MOH     0.0372 ****
5339 HC3    14.023376    0.489286    4.262086 H    839 MOH     0.0372 ****
5340 O1     15.700001    1.683412    4.399972 O    839 MOH    -0.6497 ****
5341 HO1    16.538314    1.774043    3.941767 H    839 MOH     0.4215 ****
5342 HC1    12.779764   -5.235172    7.513363 H    840 MOH     0.0372 ****
5343 C1     12.386588   -4.800387    8.431895 C    840 MOH     0.1166 ****
5344 HC2    12.202413   -3.735676    8.290474 H    840 MOH     0.0372 ****
5345 HC3    13.085759   -4.944499    9.255674 H    840 MOH     0.0372 ****
5346 O1     11.222073   -5.461341    8.760700 O    840 MOH    -0.6497 ****
5347 HO1    10.797720   -5.011860    9.495384 H    840 MOH     0.4215 ****
5348 HC1    14.566663    0.726070   -6.582103 H    841 MOH     0.0372 ****
5349 C1     14.433295   -0.296592   -6.934950 C    841 MOH     0.1166 ****
5350 HC2    13.434479   -0.374160   -7.363456 H    841 MOH     0.0372 ****
5351 HC3    14.506618   -1.013476   -6.117534 H    841 MOH     0.0372 ****
5352 O1     15.353591   -0.573793   -7.946819 O    841 MOH    -0.6497 ****
5353 HO1    15.469639   -1.521746   -8.038743 H    841 MOH     0.4215 ****
5354 HC1    17.702252    8.006770   -7.272240 H    842 MOH     0.0372 ****
5355 C1     16.854702    7.342141   -7.102534 C    842 MOH     0.1166 ****
5356 HC2    15.989254    7.985949   -6.946263 H    842 MOH     0.0372 ****
5357 HC3    17.087374    6.740383   -6.224307 H    842 MOH     0.0372 ****
5358 O1     16.721334    6.640363   -8.318051 O    842 MOH    -0.6497 ****
5359 HO1    17.567152    6.234564   -8.523111 H    842 MOH     0.4215 ****
5360 HC1    19.119647    3.389073    7.309009 H    843 MOH     0.0372 ****
5361 C1     19.183155    2.466024    6.732717 C    843 MOH     0.1166 ****
5362 HC2    20.214880    2.261900    6.447046 H    843 MOH     0.0372 ****
5363 HC3    18.565968    2.577884    5.841763 H    843 MOH     0.0372 ****
5364 O1     18.665272    1.412743    7.497807 O    843 MOH    -0.6497 ****
5365 HO1    18.915265    0.588082    7.073543 H    843 MOH     0.4215 ****
5366 HC1    13.731814    9.012693   -4.022377 H    844 MOH     0.0372 ****
5367 C1     14.603036    8.357455   -4.041469 C    844 MOH     0.1166 ****
5368 HC2    14.602459    7.785907   -4.969193 H    844 MOH     0.0372 ****
5369 HC3    14.575323    7.648328   -3.213447 H    844 MOH     0.0372 ****
5370 O1     15.781408    9.142108   -3.967930 O    844 MOH    -0.6497 ****
5371 HO1    15.751963    9.652827   -3.155464 H    844 MOH     0.4215 ****
5372 HC1     9.546602    2.247611   -1.497299 H    845 MOH     0.0372 ****
5373 C1      9.813915    1.242912   -1.168494 C    845 MOH     0.1166 ****
5374 HC2    10.758460    0.953464   -1.628820 H    845 MOH     0.0372 ****
5375 HC3     9.051236    0.529294   -1.478207 H    845 MOH     0.0372 ****
5376 O1      9.981347    1.250669    0.260569 O    845 MOH    -0.6497 ****
5377 HO1     9.152849    1.438463    0.707460 H    845 MOH     0.4215 ****
5378 HC1    26.681203    2.063083    5.865097 H    846 MOH     0.0372 ****
5379 C1     27.539723    2.424791    5.299412 C    846 MOH     0.1166 ****
5380 HC2    27.191581    2.944083    4.407043 H    846 MOH     0.0372 ****
5381 HC3    28.169035    1.584208    5.005963 H    846 MOH     0.0372 ****
5382 O1     28.289124    3.314364    6.094907 O    846 MOH    -0.6497 ****
5383 HO1    28.456555    2.895909    6.942728 H    846 MOH     0.4215 ****
5384 HC1    27.480256    3.384174   -4.066924 H    847 MOH     0.0372 ****
5385 C1     27.033387    3.798138   -4.970607 C    847 MOH     0.1166 ****
5386 HC2    26.005704    4.116980   -4.798780 H    847 MOH     0.0372 ****
5387 HC3    27.063987    3.025732   -5.739939 H    847 MOH     0.0372 ****
5388 O1     27.843987    4.862441   -5.358809 O    847 MOH    -0.6497 ****
5389 HO1    28.025852    5.408677   -4.590891 H    847 MOH     0.4215 ****
5390 HC1    20.706206    1.131868   -9.472756 H    848 MOH     0.0372 ****
5391 C1     19.781868    1.647078   -9.734385 C    848 MOH     0.1166 ****
5392 HC2    19.068840    1.600129   -8.910606 H    848 MOH     0.0372 ****
5393 HC3    19.345968    1.200862  -10.627461 H    848 MOH     0.0372 ****
5394 O1     20.019736    2.996338  -10.013693 O    848 MOH    -0.6497 ****
5395 HO1    20.524340    3.026549  -10.829694 H    848 MOH     0.4215 ****
5396 HC1    12.428157    8.325203    0.579474 H    849 MOH     0.0372 ****
5397 C1     12.057498    7.928386    1.524169 C    849 MOH     0.1166 ****
5398 HC2    12.911977    7.805503    2.189556 H    849 MOH     0.0372 ****
5399 HC3    11.585803    6.952673    1.408203 H    849 MOH     0.0372 ****
5400 O1     11.202443    8.863683    2.086319 O    849 MOH    -0.6497 ****
5401 HO1    11.387195    8.865316    3.028185 H    849 MOH     0.4215 ****
5402 HC1    12.312110   -4.729352   12.731104 H    850 MOH     0.0372 ****
5403 C1     13.206425   -5.171893   13.170925 C    850 MOH     0.1166 ****
5404 HC2    13.272243   -4.898775   14.223807 H    850 MOH     0.0372 ****
5405 HC3    14.096700   -4.802020   12.661808 H    850 MOH     0.0372 ****
5406 O1     13.155041   -6.584432   13.054959 O    850 MOH    -0.6497 ****
5407 HO1    14.060326   -6.892660   13.143347 H    850 MOH     0.4215 ****
5408 HC1    11.716284    3.650352    6.317646 H    851 MOH     0.0372 ****
5409 C1     11.649889    3.389890    7.374063 C    851 MOH     0.1166 ****
5410 HC2    11.757854    2.311706    7.497807 H    851 MOH     0.0372 ****
5411 HC3    10.666084    3.704649    7.722667 H    851 MOH     0.0372 ****
5412 O1     12.633694    4.108815    8.097433 O    851 MOH    -0.6497 ****
5413 HO1    13.456418    3.999813    7.614479 H    851 MOH     0.4215 ****
5414 HC1    19.262830    6.211294   11.166277 H    852 MOH     0.0372 ****
5415 C1     19.700461    5.307840   10.741306 C    852 MOH     0.1166 ****
5416 HC2    19.944103    5.502983    9.697616 H    852 MOH     0.0372 ****
5417 HC3    18.994939    4.481546   10.834644 H    852 MOH     0.0372 ****
5418 O1     20.836687    5.010227   11.488718 O    852 MOH    -0.6497 ****
5419 HO1    21.464266    5.736093   11.440634 H    852 MOH     0.4215 ****
5420 HC1    16.042947   -0.986532   10.533416 H    853 MOH     0.0372 ****
5421 C1     15.632451   -1.943058   10.856564 C    853 MOH     0.1166 ****
5422 HC2    16.411297   -2.705665   10.877777 H    853 MOH     0.0372 ****
5423 HC3    14.847255   -2.221891   10.154407 H    853 MOH     0.0372 ****
5424 O1     15.036626   -1.798538   12.112386 O    853 MOH    -0.6497 ****
5425 HO1    15.657277   -1.349465   12.690799 H    853 MOH     0.4215 ****
5426 HC1    12.425848    9.738967   -2.495733 H    854 MOH     0.0372 ****
5427 C1     12.992229   10.043929   -1.615385 C    854 MOH     0.1166 ****
5428 HC2    13.377899    9.150273   -1.123946 H    854 MOH     0.0372 ****
5429 HC3    12.338091   10.567711   -0.918885 H    854 MOH     0.0372 ****
5430 O1     14.086885   10.858384   -2.020558 O    854 MOH    -0.6497 ****
5431 HO1    13.735856   11.733668   -2.197334 H    854 MOH     0.4215 ****
5432 HC1    20.354022  -14.871465    0.251377 H    855 MOH     0.0372 ****
5433 C1     21.191757  -14.643254   -0.408354 C    855 MOH     0.1166 ****
5434 HC2    21.549137  -13.641821   -0.172887 H    855 MOH     0.0372 ****
5435 HC3    20.841306  -14.688161   -1.439316 H    855 MOH     0.0372 ****
5436 O1     22.272557  -15.585083   -0.204000 O    855 MOH    -0.6497 ****
5437 HO1    23.105673  -15.196838   -0.481893 H    855 MOH     0.4215 ****
5438 HC1    14.547610   -4.016143   -0.133289 H    856 MOH     0.0372 ****
5439 C1     14.235841   -2.972660   -0.168645 C    856 MOH     0.1166 ****
5440 HC2    15.041822   -2.315380    0.159453 H    856 MOH     0.0372 ****
5441 HC3    13.392910   -2.849369    0.510178 H    856 MOH     0.0372 ****
5442 O1     13.782621   -2.626465   -1.462650 O    856 MOH    -0.6497 ****
5443 HO1    13.571311   -1.690760   -1.432952 H    856 MOH     0.4215 ****
5444 HC1    21.243719    3.997363    7.364164 H    857 MOH     0.0372 ****
5445 C1     22.169211    4.297017    7.857724 C    857 MOH     0.1166 ****
5446 HC2    22.613193    3.442962    8.369670 H    857 MOH     0.0372 ****
5447 HC3    21.923260    5.049011    8.607257 H    857 MOH     0.0372 ****
5448 O1     23.051402    4.796305    6.831712 O    857 MOH    -0.6497 ****
5449 HO1    22.860877    5.734460    6.756759 H    857 MOH     0.4215 ****
5450 HC1    10.272909   -4.845295    0.683419 H    858 MOH     0.0372 ****
5451 C1     11.044249   -5.138417    1.396182 C    858 MOH     0.1166 ****
5452 HC2    11.942028   -5.394797    0.833325 H    858 MOH     0.0372 ****
5453 HC3    10.714004   -6.026765    1.934998 H    858 MOH     0.0372 ****
5454 O1     11.304634   -4.061050    2.304815 O    858 MOH    -0.6497 ****
5455 HO1    10.638372   -4.085953    2.995658 H    858 MOH     0.4215 ****
5456 HC1    10.143582   -4.234555    6.566547 H    859 MOH     0.0372 ****
5457 C1     10.626824   -4.385199    5.601346 C    859 MOH     0.1166 ****
5458 HC2    11.082354   -5.374793    5.581548 H    859 MOH     0.0372 ****
5459 HC3    11.387195   -3.616059    5.462754 H    859 MOH     0.0372 ****
5460 O1      9.595677   -4.335801    4.614933 O    859 MOH    -0.6497 ****
5461 HO1     9.082990   -3.534818    4.745040 H    859 MOH     0.4215 ****
5462 HC1    19.660624    7.866332    2.712108 H    860 MOH     0.0372 ****
5463 C1     20.606324    8.209261    3.132130 C    860 MOH     0.1166 ****
5464 HC2    20.492586    9.183749    3.608012 H    860 MOH     0.0372 ****
5465 HC3    21.336095    8.322754    2.330271 H    860 MOH     0.0372 ****
5466 O1     21.047997    7.287028    4.104401 O    860 MOH    -0.6497 ****
5467 HO1    21.879381    6.898784    3.822266 H    860 MOH     0.4215 ****
5468 HC1    19.578640   -0.199429   -2.217133 H    861 MOH     0.0372 ****
5469 C1     20.360373    0.473772   -2.568565 C    861 MOH     0.1166 ****
5470 HC2    20.919825    0.038988   -3.396587 H    861 MOH     0.0372 ****
5471 HC3    21.045687    0.678713   -1.746907 H    861 MOH     0.0372 ****
5472 O1     19.786487    1.673206   -3.014042 O    861 MOH    -0.6497 ****
5473 HO1    19.981631    2.316605   -2.328149 H    861 MOH     0.4215 ****
5474 HC1    24.478497   22.541470   -1.945604 H    862 MOH     0.0372 ****
5475 C1     23.442153   22.680275   -1.638720 C    862 MOH     0.1166 ****
5476 HC2    22.878659   23.044432   -2.497148 H    862 MOH     0.0372 ****
5477 HC3    23.372294   23.430227   -0.850296 H    862 MOH     0.0372 ****
5478 O1     22.916764   21.437567   -1.221527 O    862 MOH    -0.6497 ****
5479 HO1    22.154085   21.589843   -0.659377 H    862 MOH     0.4215 ****
5480 HC1    18.976926   12.000499    2.145716 H    863 MOH     0.0372 ****
5481 C1     18.176141   11.606540    2.771505 C    863 MOH     0.1166 ****
5482 HC2    17.610338   10.876184    2.192385 H    863 MOH     0.0372 ****
5483 HC3    17.503528   12.383436    3.132837 H    863 MOH     0.0372 ****
5484 O1     18.673240   10.865569    3.815902 O    863 MOH    -0.6497 ****
5485 HO1    19.217681   11.461612    4.334918 H    863 MOH     0.4215 ****
5486 HC1    23.589955   15.768631    7.108191 H    864 MOH     0.0372 ****
5487 C1     22.569777   15.475917    7.356386 C    864 MOH     0.1166 ****
5488 HC2    22.408696   15.533480    8.431895 H    864 MOH     0.0372 ****
5489 HC3    22.361353   14.453663    7.039602 H    864 MOH     0.0372 ****
5490 O1     21.683544   16.368348    6.755345 O    864 MOH    -0.6497 ****
5491 HO1    22.135032   16.744753    5.995912 H    864 MOH     0.4215 ****
5492 HC1    27.387187   19.716800   -7.788428 H    865 MOH     0.0372 ****
5493 C1     27.432798   19.262012   -8.778377 C    865 MOH     0.1166 ****
5494 HC2    28.350208   18.683116   -8.887271 H    865 MOH     0.0372 ****
5495 HC3    27.422406   20.039725   -9.541345 H    865 MOH     0.0372 ****
5496 O1     26.329482   18.425511   -8.995459 O    865 MOH    -0.6497 ****
5497 HO1    26.588712   17.537979   -8.738072 H    865 MOH     0.4215 ****
5498 HC1    18.188843   18.555334    3.312442 H    866 MOH     0.0372 ****
5499 C1     19.229228   18.582687    2.986466 C    866 MOH     0.1166 ****
5500 HC2    19.813507   17.942961    3.649025 H    866 MOH     0.0372 ****
5501 HC3    19.570442   19.616371    3.040206 H    866 MOH     0.0372 ****
5502 O1     19.296201   18.100545    1.663469 O    866 MOH    -0.6497 ****
5503 HO1    18.701530   17.347735    1.619628 H    866 MOH     0.4215 ****
5504 HC1    21.069243   13.873134   -0.847467 H    867 MOH     0.0372 ****
5505 C1     21.983766   14.179320   -1.355170 C    867 MOH     0.1166 ****
5506 HC2    22.579014   14.833742   -0.718067 H    867 MOH     0.0372 ****
5507 HC3    21.708370   14.725557   -2.257438 H    867 MOH     0.0372 ****
5508 O1     22.685824   13.039899   -1.753271 O    867 MOH    -0.6497 ****
5509 HO1    23.620554   13.238716   -1.663469 H    867 MOH     0.4215 ****
5510 HC1    18.015061   13.535513   -5.703170 H    868 MOH     0.0372 ****
5511 C1     18.057784   13.777196   -4.641095 C    868 MOH     0.1166 ****
5512 HC2    19.094705   13.715142   -4.310169 H    868 MOH     0.0372 ****
5513 HC3    17.460227   13.075417   -4.059146 H    868 MOH     0.0372 ****
5514 O1     17.624194   15.070935   -4.371688 O    868 MOH    -0.6497 ****
5515 HO1    16.854586   15.262403   -4.912624 H    868 MOH     0.4215 ****
5516 HC1    15.411788   17.473068    2.012072 H    869 MOH     0.0372 ****
5517 C1     14.977043   16.587577    2.475227 C    869 MOH     0.1166 ****
5518 HC2    14.564815   15.912743    1.724987 H    869 MOH     0.0372 ****
5519 HC3    14.154897   16.873759    3.132130 H    869 MOH     0.0372 ****
5520 O1     15.882329   15.884982    3.270722 O    869 MOH    -0.6497 ****
5521 HO1    15.355785   15.167281    3.631347 H    869 MOH     0.4215 ****
5522 HC1    21.324432   15.644932   -5.316382 H    870 MOH     0.0372 ****
5523 C1     20.784032   16.514501   -5.689735 C    870 MOH     0.1166 ****
5524 HC2    20.340627   16.185044   -6.629480 H    870 MOH     0.0372 ****
5525 HC3    21.506875   17.317525   -5.836106 H    870 MOH     0.0372 ****
5526 O1     19.792722   16.852938   -4.696250 O    870 MOH    -0.6497 ****
5527 HO1    19.157059   16.138912   -4.613518 H    870 MOH     0.4215 ****
5528 HC1    19.767896    8.872909   -9.625491 H    871 MOH     0.0372 ****
5529 C1     20.180701    9.880466   -9.662260 C    871 MOH     0.1166 ****
5530 HC2    20.095254   10.351176   -8.682918 H    871 MOH     0.0372 ****
5531 HC3    19.603928   10.468343  -10.376438 H    871 MOH     0.0372 ****
5532 O1     21.520154    9.824944  -10.093596 O    871 MOH    -0.6497 ****
5533 HO1    21.553640    9.164398  -10.789389 H    871 MOH     0.4215 ****
5534 HC1    27.205322   13.286890   -6.061673 H    872 MOH     0.0372 ****
5535 C1     27.044241   12.274026   -5.693270 C    872 MOH     0.1166 ****
5536 HC2    26.293109   12.318933   -4.905553 H    872 MOH     0.0372 ****
5537 HC3    27.969156   11.873534   -5.278198 H    872 MOH     0.0372 ****
5538 O1     26.592753   11.427319   -6.749688 O    872 MOH    -0.6497 ****
5539 HO1    26.997476   10.569181   -6.599781 H    872 MOH     0.4215 ****
5540 HC1    19.584298   15.973980    4.751404 H    873 MOH     0.0372 ****
5541 C1     19.192855   15.204840    4.086724 C    873 MOH     0.1166 ****
5542 HC2    19.692263   15.238725    3.118695 H    873 MOH     0.0372 ****
5543 HC3    18.121293   15.367323    3.962273 H    873 MOH     0.0372 ****
5544 O1     19.333728   13.938046    4.671501 O    873 MOH    -0.6497 ****
5545 HO1    18.887437   13.937637    5.520736 H    873 MOH     0.4215 ****
5546 HC1    26.540792    5.950260    0.594323 H    874 MOH     0.0372 ****
5547 C1     26.133760    6.950876    0.449367 C    874 MOH     0.1166 ****
5548 HC2    25.088179    6.905152    0.143896 H    874 MOH     0.0372 ****
5549 HC3    26.690326    7.408523   -0.367342 H    874 MOH     0.0372 ****
5550 O1     26.288490    7.774721    1.606193 O    874 MOH    -0.6497 ****
5551 HO1    26.571391    8.654905    1.345978 H    874 MOH     0.4215 ****
5552 HC1    25.946698   10.355667    2.816760 H    875 MOH     0.0372 ****
5553 C1     26.035033   11.341587    3.272844 C    875 MOH     0.1166 ****
5554 HC2    25.434011   11.373430    4.180769 H    875 MOH     0.0372 ****
5555 HC3    25.682849   12.076842    2.549474 H    875 MOH     0.0372 ****
5556 O1     27.375063   11.545303    3.580435 O    875 MOH    -0.6497 ****
5557 HO1    27.860037   11.078675    2.896663 H    875 MOH     0.4215 ****
5558 HC1    27.910267    5.518333    3.630640 H    876 MOH     0.0372 ****
5559 C1     28.986448    5.526498    3.460934 C    876 MOH     0.1166 ****
5560 HC2    29.406759    6.386677    3.980658 H    876 MOH     0.0372 ****
5561 HC3    29.190252    5.586919    2.391789 H    876 MOH     0.0372 ****
5562 O1     29.579964    4.381770    3.961566 O    876 MOH    -0.6497 ****
5563 HO1    29.118083    4.120491    4.760597 H    876 MOH     0.4215 ****
5564 HC1    24.556439   20.186286   -3.770647 H    877 MOH     0.0372 ****
5565 C1     23.973893   19.313451   -3.475076 C    877 MOH     0.1166 ****
5566 HC2    24.309910   18.398567   -3.962273 H    877 MOH     0.0372 ****
5567 HC3    22.953715   19.493488   -3.812366 H    877 MOH     0.0372 ****
5568 O1     23.966964   19.166482   -2.072176 O    877 MOH    -0.6497 ****
5569 HO1    23.780480   20.028294   -1.691046 H    877 MOH     0.4215 ****
5570 HC1    23.725632   17.171780    0.500278 H    878 MOH     0.0372 ****
5571 C1     24.757357   16.888048    0.294510 C    878 MOH     0.1166 ****
5572 HC2    25.028134   16.062162    0.951412 H    878 MOH     0.0372 ****
5573 HC3    25.405721   17.738837    0.505228 H    878 MOH     0.0372 ****
5574 O1     24.895344   16.568798   -1.067378 O    878 MOH    -0.6497 ****
5575 HO1    24.598586   17.361616   -1.519926 H    878 MOH     0.4215 ****
5576 HC1    25.076054    8.696954    8.692110 H    879 MOH     0.0372 ****
5577 C1     26.068519    8.717775    8.241683 C    879 MOH     0.1166 ****
5578 HC2    26.591599    9.628985    8.531597 H    879 MOH     0.0372 ****
5579 HC3    26.008475    8.662253    7.155567 H    879 MOH     0.0372 ****
5580 O1     26.803486    7.653063    8.689989 O    879 MOH    -0.6497 ****
5581 HO1    26.356617    6.856979    8.394418 H    879 MOH     0.4215 ****
5582 HC1    23.016068   20.926440    1.697410 H    880 MOH     0.0372 ****
5583 C1     22.776468   20.293655    2.551595 C    880 MOH     0.1166 ****
5584 HC2    21.730887   20.418171    2.832316 H    880 MOH     0.0372 ****
5585 HC3    23.408667   20.601066    3.385274 H    880 MOH     0.0372 ****
5586 O1     23.078422   18.943578    2.235518 O    880 MOH    -0.6497 ****
5587 HO1    22.615965   18.670460    1.440023 H    880 MOH     0.4215 ****
5588 HC1    20.422611   12.988052   -7.402347 H    881 MOH     0.0372 ****
5589 C1     21.210694   13.022345   -8.154709 C    881 MOH     0.1166 ****
5590 HC2    20.790383   13.413855   -9.081726 H    881 MOH     0.0372 ****
5591 HC3    21.608489   12.024586   -8.341385 H    881 MOH     0.0372 ****
5592 O1     22.217016   13.922532   -7.804691 O    881 MOH    -0.6497 ****
5593 HO1    23.044359   13.457537   -7.948234 H    881 MOH     0.4215 ****
5594 HC1    23.626328   12.367514  -10.120466 H    882 MOH     0.0372 ****
5595 C1     24.056454   11.797600   -9.295979 C    882 MOH     0.1166 ****
5596 HC2    24.831835   11.153792   -9.711051 H    882 MOH     0.0372 ****
5597 HC3    23.311095   11.148893   -8.835653 H    882 MOH     0.0372 ****
5598 O1     24.625721   12.692072   -8.356234 O    882 MOH    -0.6497 ****
5599 HO1    25.040259   12.152776   -7.679533 H    882 MOH     0.4215 ****
5600 HC1    23.777593   15.528173    3.439014 H    883 MOH     0.0372 ****
5601 C1     22.767808   15.927440    3.530938 C    883 MOH     0.1166 ****
5602 HC2    22.155239   15.186061    4.044297 H    883 MOH     0.0372 ****
5603 HC3    22.366549   16.119316    2.535331 H    883 MOH     0.0372 ****
5604 O1     22.835935   17.116259    4.293199 O    883 MOH    -0.6497 ****
5605 HO1    23.170221   17.809464    3.719028 H    883 MOH     0.4215 ****
5606 HC1    19.521367   22.764374    1.862873 H    884 MOH     0.0372 ****
5607 C1     20.383929   23.227327    1.383454 C    884 MOH     0.1166 ****
5608 HC2    21.170857   23.342045    2.129452 H    884 MOH     0.0372 ****
5609 HC3    20.066963   24.219371    1.061014 H    884 MOH     0.0372 ****
5610 O1     20.766712   22.439816    0.224506 O    884 MOH    -0.6497 ****
5611 HO1    20.072737   22.485948   -0.436638 H    884 MOH     0.4215 ****
5612 HC1    26.207661   18.201791    8.123596 H    885 MOH     0.0372 ****
5613 C1     26.815611   19.072585    7.875402 C    885 MOH     0.1166 ****
5614 HC2    27.865233   18.803141    7.760851 H    885 MOH     0.0372 ****
5615 HC3    26.759030   19.794776    8.690696 H    885 MOH     0.0372 ****
5616 O1     26.420703   19.634742    6.665542 O    885 MOH    -0.6497 ****
5617 HO1    26.702450   19.036250    5.969749 H    885 MOH     0.4215 ****
5618 HC1    27.680481   15.195859  -12.585440 H    886 MOH     0.0372 ****
5619 C1     28.604242   15.384061  -13.133448 C    886 MOH     0.1166 ****
5620 HC2    29.194871   14.469177  -13.095971 H    886 MOH     0.0372 ****
5621 HC3    29.126744   16.207498  -12.646251 H    886 MOH     0.0372 ****
5622 O1     28.331155   15.736379  -14.487557 O    886 MOH    -0.6497 ****
5623 HO1    29.112887   16.158508  -14.851010 H    886 MOH     0.4215 ****
5624 HC1    25.267157   10.457729   -1.674782 H    887 MOH     0.0372 ****
5625 C1     26.123945   10.199716   -2.298450 C    887 MOH     0.1166 ****
5626 HC2    26.309852   10.992943   -3.021821 H    887 MOH     0.0372 ****
5627 HC3    25.877994    9.295854   -2.855651 H    887 MOH     0.0372 ****
5628 O1     27.287306   10.009064   -1.497298 O    887 MOH    -0.6497 ****
5629 HO1    27.983590    9.661237   -2.058741 H    887 MOH     0.4215 ****
5630 HC1    26.402805   22.137304   -1.122532 H    888 MOH     0.0372 ****
5631 C1     26.584093   21.099129   -0.843225 C    888 MOH     0.1166 ****
5632 HC2    25.924759   20.461853   -1.432245 H    888 MOH     0.0372 ****
5633 HC3    26.359504   20.944403    0.212486 H    888 MOH     0.0372 ****
5634 O1     27.914308   20.703536   -1.084348 O    888 MOH    -0.6497 ****
5635 HO1    28.093864   20.811722   -2.021265 H    888 MOH     0.4215 ****
5636 HC1    27.563857   13.894363  -10.089353 H    889 MOH     0.0372 ****
5637 C1     27.843872   12.986011   -9.555487 C    889 MOH     0.1166 ****
5638 HC2    28.652162   12.490397  -10.092888 H    889 MOH     0.0372 ****
5639 HC3    27.013064   12.280149   -9.532153 H    889 MOH     0.0372 ****
5640 O1     28.281503   13.247290   -8.236026 O    889 MOH    -0.6497 ****
5641 HO1    27.933938   12.542653   -7.684483 H    889 MOH     0.4215 ****
5642 HC1    27.153360   14.763932    6.833127 H    890 MOH     0.0372 ****
5643 C1     27.498616   13.920899    6.235621 C    890 MOH     0.1166 ****
5644 HC2    28.238779   13.388952    6.834541 H    890 MOH     0.0372 ****
5645 HC3    27.940289   14.306694    5.317090 H    890 MOH     0.0372 ****
5646 O1     26.446106   13.003157    5.901867 O    890 MOH    -0.6497 ****
5647 HO1    26.724967   12.489989    5.140313 H    890 MOH     0.4215 ****
5648 HC1    27.672398   15.428152   -4.621296 H    891 MOH     0.0372 ****
5649 C1     27.041932   15.114617   -3.789739 C    891 MOH     0.1166 ****
5650 HC2    26.065633   14.801899   -4.160263 H    891 MOH     0.0372 ****
5651 HC3    26.871614   15.941728   -3.099602 H    891 MOH     0.0372 ****
5652 O1     27.644108   14.060520   -3.093946 O    891 MOH    -0.6497 ****
5653 HO1    26.993435   13.706161   -2.484420 H    891 MOH     0.4215 ****
5654 HC1    19.672633   10.092755   -1.424466 H    892 MOH     0.0372 ****
5655 C1     20.316379   10.877000   -1.821153 C    892 MOH     0.1166 ****
5656 HC2    20.350442   11.678391   -1.083641 H    892 MOH     0.0372 ****
5657 HC3    19.917430   11.317092   -2.736150 H    892 MOH     0.0372 ****
5658 O1     21.628118   10.412413   -2.051670 O    892 MOH    -0.6497 ****
5659 HO1    22.070369   11.199516   -2.376939 H    892 MOH     0.4215 ****
5660 HC1    26.442642   17.233426    2.753827 H    893 MOH     0.0372 ****
5661 C1     26.605455   17.009298    3.808124 C    893 MOH     0.1166 ****
5662 HC2    27.172990   16.082574    3.900048 H    893 MOH     0.0372 ****
5663 HC3    25.621650   16.891722    4.262086 H    893 MOH     0.0372 ****
5664 O1     27.298275   18.085848    4.399972 O    893 MOH    -0.6497 ****
5665 HO1    28.136588   18.176479    3.941767 H    893 MOH     0.4215 ****
5666 HC1    24.378038   11.167265    7.513363 H    894 MOH     0.0372 ****
5667 C1     23.984862   11.602049    8.431895 C    894 MOH     0.1166 ****
5668 HC2    23.800687   12.666761    8.290474 H    894 MOH     0.0372 ****
5669 HC3    24.684033   11.457937    9.255674 H    894 MOH     0.0372 ****
5670 O1     22.820347   10.941095    8.760700 O    894 MOH    -0.6497 ****
5671 HO1    22.395994   11.390576    9.495384 H    894 MOH     0.4215 ****
5672 HC1    26.164937   17.128506   -6.582103 H    895 MOH     0.0372 ****
5673 C1     26.031569   16.105844   -6.934950 C    895 MOH     0.1166 ****
5674 HC2    25.032753   16.028277   -7.363456 H    895 MOH     0.0372 ****
5675 HC3    26.104892   15.388960   -6.117534 H    895 MOH     0.0372 ****
5676 O1     26.951865   15.828643   -7.946819 O    895 MOH    -0.6497 ****
5677 HO1    27.067913   14.880691   -8.038743 H    895 MOH     0.4215 ****
5678 HC1    28.351940    7.853921   -7.624379 H    896 MOH     0.0372 ****
5679 C1     27.615241    8.199708   -6.899594 C    896 MOH     0.1166 ****
5680 HC2    27.344464    7.391784   -6.218650 H    896 MOH     0.0372 ****
5681 HC3    26.706491    8.499362   -7.420025 H    896 MOH     0.0372 ****
5682 O1     28.055182    9.281157   -6.105513 O    896 MOH    -0.6497 ****
5683 HO1    29.002613    9.212572   -5.969749 H    896 MOH     0.4215 ****
5684 HC1    27.189156    5.603249   -1.862165 H    897 MOH     0.0372 ****
5685 C1     28.224345    5.907394   -2.018436 C    897 MOH     0.1166 ****
5686 HC2    28.813243    5.004757   -2.186020 H    897 MOH     0.0372 ****
5687 HC3    28.597314    6.464244   -1.160008 H    897 MOH     0.0372 ****
5688 O1     28.222036    6.638975   -3.195062 O    897 MOH    -0.6497 ****
5689 HO1    28.859431    7.348102   -3.085460 H    897 MOH     0.4215 ****
5690 HC1    18.666889   19.099121   -1.173444 H    898 MOH     0.0372 ****
5691 C1     18.500612   20.169548   -1.054650 C    898 MOH     0.1166 ****
5692 HC2    18.853950   20.490431   -0.074600 H    898 MOH     0.0372 ****
5693 HC3    17.433669   20.382653   -1.126775 H    898 MOH     0.0372 ****
5694 O1     19.187659   20.883982   -2.064398 O    898 MOH    -0.6497 ****
5695 HO1    19.097015   20.354076   -2.859186 H    898 MOH     0.4215 ****
5696 HC1    21.144876   18.650047   -1.497299 H    899 MOH     0.0372 ****
5697 C1     21.412189   17.645348   -1.168494 C    899 MOH     0.1166 ****
5698 HC2    22.356734   17.355900   -1.628820 H    899 MOH     0.0372 ****
5699 HC3    20.649510   16.931730   -1.478207 H    899 MOH     0.0372 ****
5700 O1     21.579621   17.653105    0.260569 O    899 MOH    -0.6497 ****
5701 HO1    20.751123   17.840899    0.707460 H    899 MOH     0.4215 ****
5702 HC1    23.910384   11.673084   12.731104 H    900 MOH     0.0372 ****
5703 C1     24.804699   11.230543   13.170925 C    900 MOH     0.1166 ****
5704 HC2    24.870517   11.503661   14.223807 H    900 MOH     0.0372 ****
5705 HC3    25.694974   11.600416   12.661808 H    900 MOH     0.0372 ****
5706 O1     24.753315    9.818004   13.054959 O    900 MOH    -0.6497 ****
5707 HO1    25.658601    9.509777   13.143347 H    900 MOH     0.4215 ****
5708 HC1    22.564003    7.314625   -8.933233 H    901 MOH     0.0372 ****
5709 C1     23.077845    7.623669   -8.023187 C    901 MOH     0.1166 ****
5710 HC2    24.160954    7.597541   -8.139152 H    901 MOH     0.0372 ****
5711 HC3    22.774736    6.984353   -7.193044 H    901 MOH     0.0372 ****
5712 O1     22.638481    8.881074   -7.740344 O    901 MOH    -0.6497 ****
5713 HO1    22.306505    9.243190   -8.565538 H    901 MOH     0.4215 ****
5714 HC1    23.314559   20.052789    6.317646 H    902 MOH     0.0372 ****
5715 C1     23.248163   19.792326    7.374063 C    902 MOH     0.1166 ****
5716 HC2    23.356128   18.714143    7.497807 H    902 MOH     0.0372 ****
5717 HC3    22.264358   20.107086    7.722667 H    902 MOH     0.0372 ****
5718 O1     24.231968   20.511251    8.097433 O    902 MOH    -0.6497 ****
5719 HO1    25.054692   20.402249    7.614479 H    902 MOH     0.4215 ****
5720 HC1    27.641221   15.415905   10.533416 H    903 MOH     0.0372 ****
5721 C1     27.230725   14.459379   10.856564 C    903 MOH     0.1166 ****
5722 HC2    28.009571   13.696771   10.877777 H    903 MOH     0.0372 ****
5723 HC3    26.445529   14.180545   10.154407 H    903 MOH     0.0372 ****
5724 O1     26.634900   14.603899   12.112386 O    903 MOH    -0.6497 ****
5725 HO1    27.255551   15.052972   12.690799 H    903 MOH     0.4215 ****
5726 HC1    15.940641   16.736588   -3.098895 H    904 MOH     0.0372 ****
5727 C1     16.499516   17.368964   -2.409466 C    904 MOH     0.1166 ****
5728 HC2    16.544549   18.369581   -2.840094 H    904 MOH     0.0372 ****
5729 HC3    17.512766   16.974596   -2.328856 H    904 MOH     0.0372 ****
5730 O1     15.834408   17.381212   -1.121118 O    904 MOH    -0.6497 ****
5731 HO1    16.301485   16.763124   -0.555432 H    904 MOH     0.4215 ****
5732 HC1    24.415566   10.523457   -5.199710 H    905 MOH     0.0372 ****
5733 C1     23.533374   11.106844   -4.938787 C    905 MOH     0.1166 ****
5734 HC2    23.837638   12.105419   -4.627660 H    905 MOH     0.0372 ****
5735 HC3    22.998171   10.616946   -4.125614 H    905 MOH     0.0372 ****
5736 O1     22.712382   11.161957   -6.106220 O    905 MOH    -0.6497 ****
5737 HO1    22.621738   10.273201   -6.459067 H    905 MOH     0.4215 ****
5738 HC1    26.145884   12.386294   -0.133289 H    906 MOH     0.0372 ****
5739 C1     25.834115   13.429777   -0.168645 C    906 MOH     0.1166 ****
5740 HC2    26.640096   14.087056    0.159453 H    906 MOH     0.0372 ****
5741 HC3    24.991184   13.553068    0.510178 H    906 MOH     0.0372 ****
5742 O1     25.380895   13.775971   -1.462650 O    906 MOH    -0.6497 ****
5743 HO1    25.169585   14.711676   -1.432952 H    906 MOH     0.4215 ****
5744 HC1    21.871183   11.557142    0.683419 H    907 MOH     0.0372 ****
5745 C1     22.642523   11.264019    1.396182 C    907 MOH     0.1166 ****
5746 HC2    23.540303   11.007639    0.833325 H    907 MOH     0.0372 ****
5747 HC3    22.312278   10.375671    1.934998 H    907 MOH     0.0372 ****
5748 O1     22.902908   12.341387    2.304815 O    907 MOH    -0.6497 ****
5749 HO1    22.236646   12.316484    2.995658 H    907 MOH     0.4215 ****
5750 HC1    21.741856   12.167881    6.566547 H    908 MOH     0.0372 ****
5751 C1     22.225099   12.017238    5.601346 C    908 MOH     0.1166 ****
5752 HC2    22.680628   11.027644    5.581548 H    908 MOH     0.0372 ****
5753 HC3    22.985469   12.786377    5.462754 H    908 MOH     0.0372 ****
5754 O1     21.193951   12.066636    4.614933 O    908 MOH    -0.6497 ****
5755 HO1    20.681264   12.867619    4.745040 H    908 MOH     0.4215 ****
5756 HC1    17.441752   13.595525    0.232992 H    909 MOH     0.0372 ****
5757 C1     18.029494   14.511226    0.294510 C    909 MOH     0.1166 ****
5758 HC2    18.495416   14.721882   -0.668569 H    909 MOH     0.0372 ****
5759 HC3    18.818155   14.362624    1.031315 H    909 MOH     0.0372 ****
5760 O1     17.247762   15.635950    0.669984 O    909 MOH    -0.6497 ****
5761 HO1    16.847658   15.471835    1.526997 H    909 MOH     0.4215 ****
5762 HC1     2.744954  -30.123213  -11.690101 H    910 MOH     0.0372 ****
5763 C1      2.290580  -29.825191  -12.634796 C    910 MOH     0.1166 ****
5764 HC2     1.209780  -29.959913  -12.586713 H    910 MOH     0.0372 ****
5765 HC3     2.713200  -30.449811  -13.422513 H    910 MOH     0.0372 ****
5766 O1      2.572327  -28.467766  -12.894304 O    910 MOH    -0.6497 ****
5767 HO1     2.302704  -28.273440  -13.795158 H    910 MOH     0.4215 ****
5768 HC1     3.785917  -27.209544   -8.566811 H    911 MOH     0.0372 ****
5769 C1      3.444125  -27.879072   -9.355942 C    911 MOH     0.1166 ****
5770 HC2     2.945872  -28.755173   -8.940163 H    911 MOH     0.0372 ****
5771 HC3     4.316502  -28.197097   -9.926577 H    911 MOH     0.0372 ****
5772 O1      2.662970  -27.149124  -10.278009 O    911 MOH    -0.6497 ****
5773 HO1     2.690106  -27.636164  -11.104617 H    911 MOH     0.4215 ****
5774 HC1    -1.072486  -29.586774  -13.998098 H    912 MOH     0.0372 ****
5775 C1     -1.980080  -29.650461  -13.398471 C    912 MOH     0.1166 ****
5776 HC2    -2.590917  -30.497168  -13.711012 H    912 MOH     0.0372 ****
5777 HC3    -2.529140  -28.718430  -13.530700 H    912 MOH     0.0372 ****
5778 O1     -1.608267  -29.833765  -12.074060 O    912 MOH    -0.6497 ****
5779 HO1    -1.081146  -30.636381  -12.075474 H    912 MOH     0.4215 ****
5780 HC1     3.594237  -27.138918  -15.634343 H    913 MOH     0.0372 ****
5781 C1      2.686642  -26.759247  -16.103862 C    913 MOH     0.1166 ****
5782 HC2     2.817123  -26.779251  -17.186442 H    913 MOH     0.0372 ****
5783 HC3     2.543459  -25.728420  -15.782128 H    913 MOH     0.0372 ****
5784 O1      1.546375  -27.552473  -15.729802 O    913 MOH    -0.6497 ****
5785 HO1     0.773303  -27.047470  -15.992139 H    913 MOH     0.4215 ****
5786 HC1    12.880223  -18.464621  -16.150531 H    914 MOH     0.0372 ****
5787 C1     11.843879  -18.325817  -15.843646 C    914 MOH     0.1166 ****
5788 HC2    11.280385  -17.961659  -16.702074 H    914 MOH     0.0372 ****
5789 HC3    11.774020  -17.575865  -15.055222 H    914 MOH     0.0372 ****
5790 O1     11.318490  -19.568525  -15.426453 O    914 MOH    -0.6497 ****
5791 HO1    10.555811  -19.416248  -14.864304 H    914 MOH     0.4215 ****
5792 HC1    13.929846  -19.915944  -11.481505 H    915 MOH     0.0372 ****
5793 C1     14.533754  -19.364400  -10.760963 C    915 MOH     0.1166 ****
5794 HC2    15.345508  -19.999635  -10.407409 H    915 MOH     0.0372 ****
5795 HC3    13.885390  -19.078627   -9.932234 H    915 MOH     0.0372 ****
5796 O1     15.038358  -18.240493  -11.416451 O    915 MOH    -0.6497 ****
5797 HO1    15.851267  -17.978806  -10.977338 H    915 MOH     0.4215 ****
5798 HC1    11.991681  -25.237460   -7.096736 H    916 MOH     0.0372 ****
5799 C1     10.971503  -25.530174   -6.848541 C    916 MOH     0.1166 ****
5800 HC2    10.810422  -25.472611   -5.773032 H    916 MOH     0.0372 ****
5801 HC3    10.763079  -26.552428   -7.165325 H    916 MOH     0.0372 ****
5802 O1     10.085270  -24.637744   -7.449582 O    916 MOH    -0.6497 ****
5803 HO1    10.536758  -24.261339   -8.209014 H    916 MOH     0.4215 ****
5804 HC1     6.590569  -22.450757  -10.892485 H    917 MOH     0.0372 ****
5805 C1      7.630954  -22.423405  -11.218461 C    917 MOH     0.1166 ****
5806 HC2     8.215233  -23.063130  -10.555902 H    917 MOH     0.0372 ****
5807 HC3     7.972168  -21.389720  -11.164721 H    917 MOH     0.0372 ****
5808 O1      7.697927  -22.905546  -12.541458 O    917 MOH    -0.6497 ****
5809 HO1     7.103256  -23.658356  -12.585298 H    917 MOH     0.4215 ****
5810 HC1     6.416787  -27.470579  -19.908096 H    918 MOH     0.0372 ****
5811 C1      6.459510  -27.228896  -18.846022 C    918 MOH     0.1166 ****
5812 HC2     7.496432  -27.290949  -18.515096 H    918 MOH     0.0372 ****
5813 HC3     5.861953  -27.930674  -18.264073 H    918 MOH     0.0372 ****
5814 O1      6.025920  -25.935157  -18.576614 O    918 MOH    -0.6497 ****
5815 HO1     5.256313  -25.743688  -19.117551 H    918 MOH     0.4215 ****
5816 HC1     3.813514  -23.533024  -12.192854 H    919 MOH     0.0372 ****
5817 C1      3.378769  -24.418514  -11.729699 C    919 MOH     0.1166 ****
5818 HC2     2.966541  -25.093349  -12.479940 H    919 MOH     0.0372 ****
5819 HC3     2.556623  -24.132332  -11.072797 H    919 MOH     0.0372 ****
5820 O1      4.284055  -25.121110  -10.934204 O    919 MOH    -0.6497 ****
5821 HO1     3.757511  -25.838810  -10.573580 H    919 MOH     0.4215 ****
5822 HC1    17.402607  -17.974723  -14.423776 H    920 MOH     0.0372 ****
5823 C1     16.736923  -17.115769  -14.338923 C    920 MOH     0.1166 ****
5824 HC2    15.694805  -17.435836  -14.345994 H    920 MOH     0.0372 ****
5825 HC3    16.872023  -16.491149  -15.221392 H    920 MOH     0.0372 ****
5826 O1     16.962667  -16.318868  -13.135427 O    920 MOH    -0.6497 ****
5827 HO1    16.889920  -16.885925  -12.365388 H    920 MOH     0.4215 ****
5828 HC1     9.726158  -25.361160  -19.521309 H    921 MOH     0.0372 ****
5829 C1      9.185758  -24.491591  -19.894661 C    921 MOH     0.1166 ****
5830 HC2     8.742353  -24.821047  -20.834406 H    921 MOH     0.0372 ****
5831 HC3     9.908601  -23.688566  -20.041032 H    921 MOH     0.0372 ****
5832 O1      8.194448  -24.153153  -18.901176 O    921 MOH    -0.6497 ****
5833 HO1     7.558785  -24.867179  -18.818445 H    921 MOH     0.4215 ****
5834 HC1    14.343228  -13.720776  -11.690101 H    922 MOH     0.0372 ****
5835 C1     13.888854  -13.422755  -12.634796 C    922 MOH     0.1166 ****
5836 HC2    12.808054  -13.557477  -12.586713 H    922 MOH     0.0372 ****
5837 HC3    14.311474  -14.047375  -13.422513 H    922 MOH     0.0372 ****
5838 O1     14.170601  -12.065329  -12.894304 O    922 MOH    -0.6497 ****
5839 HO1    13.900978  -11.871003  -13.795158 H    922 MOH     0.4215 ****
5840 HC1    20.914052  -19.476669  -11.607370 H    923 MOH     0.0372 ****
5841 C1     21.396717  -20.442584  -11.754448 C    923 MOH     0.1166 ****
5842 HC2    20.623645  -21.196619  -11.902233 H    923 MOH     0.0372 ****
5843 HC3    21.961365  -20.685084  -10.855008 H    923 MOH     0.0372 ****
5844 O1     22.304889  -20.414823  -12.877333 O    923 MOH    -0.6497 ****
5845 HO1    23.016184  -19.810616  -12.648231 H    923 MOH     0.4215 ****
5846 HC1    23.478642  -16.204967   -3.471399 H    924 MOH     0.0372 ****
5847 C1     22.767346  -17.030853   -3.482006 C    924 MOH     0.1166 ****
5848 HC2    23.129345  -17.762026   -4.205376 H    924 MOH     0.0372 ****
5849 HC3    21.778345  -16.658531   -3.752120 H    924 MOH     0.0372 ****
5850 O1     22.703837  -17.604442   -2.197193 O    924 MOH    -0.6497 ****
5851 HO1    22.427864  -16.920626   -1.582717 H    924 MOH     0.4215 ****
5852 HC1    19.408322  -14.675261  -20.479438 H    925 MOH     0.0372 ****
5853 C1     18.827508  -14.293957  -19.639396 C    925 MOH     0.1166 ****
5854 HC2    19.124843  -13.286808  -19.347361 H    925 MOH     0.0372 ****
5855 HC3    19.035354  -14.949195  -18.792989 H    925 MOH     0.0372 ****
5856 O1     17.448218  -14.337639  -19.924360 O    925 MOH    -0.6497 ****
5857 HO1    17.042918  -15.012474  -19.374938 H    925 MOH     0.4215 ****
5858 HC1     7.986024  -25.032111   -9.453522 H    926 MOH     0.0372 ****
5859 C1      7.594581  -25.801251  -10.118203 C    926 MOH     0.1166 ****
5860 HC2     8.093989  -25.767367  -11.086232 H    926 MOH     0.0372 ****
5861 HC3     6.523019  -25.638768  -10.242654 H    926 MOH     0.0372 ****
5862 O1      7.735454  -27.068046   -9.533426 O    926 MOH    -0.6497 ****
5863 HO1     7.289163  -27.068454   -8.684190 H    926 MOH     0.4215 ****
5864 HC1    18.340802  -23.673053  -14.702376 H    927 MOH     0.0372 ****
5865 C1     17.277322  -23.472195  -14.833898 C    927 MOH     0.1166 ****
5866 HC2    16.695353  -24.393203  -14.807028 H    927 MOH     0.0372 ****
5867 HC3    17.112200  -23.001484  -15.803341 H    927 MOH     0.0372 ****
5868 O1     16.826989  -22.581805  -13.854555 O    927 MOH    -0.6497 ****
5869 HO1    16.937263  -21.687333  -14.184774 H    927 MOH     0.4215 ****
5870 HC1    17.251342  -20.073528  -19.962543 H    928 MOH     0.0372 ****
5871 C1     17.014051  -20.360118  -18.937239 C    928 MOH     0.1166 ****
5872 HC2    17.776153  -21.022705  -18.527824 H    928 MOH     0.0372 ****
5873 HC3    16.060845  -20.888800  -18.956330 H    928 MOH     0.0372 ****
5874 O1     16.912437  -19.233761  -18.099317 O    928 MOH    -0.6497 ****
5875 HO1    17.686086  -18.677319  -18.218818 H    928 MOH     0.4215 ****
5876 HC1    18.644488  -16.550345   -6.589740 H    929 MOH     0.0372 ****
5877 C1     18.601764  -15.676285   -7.239571 C    929 MOH     0.1166 ****
5878 HC2    19.402549  -14.976140   -7.001276 H    929 MOH     0.0372 ****
5879 HC3    17.662415  -15.160259   -7.044410 H    929 MOH     0.0372 ****
5880 O1     18.602341  -16.030645   -8.631157 O    929 MOH    -0.6497 ****
5881 HO1    18.711460  -15.238235   -9.162194 H    929 MOH     0.4215 ****
5882 HC1    12.958165  -20.819806  -17.975573 H    930 MOH     0.0372 ****
5883 C1     12.375619  -21.692640  -17.680003 C    930 MOH     0.1166 ****
5884 HC2    12.711637  -22.607525  -18.167199 H    930 MOH     0.0372 ****
5885 HC3    11.355441  -21.512603  -18.017293 H    930 MOH     0.0372 ****
5886 O1     12.368690  -21.839610  -16.277103 O    930 MOH    -0.6497 ****
5887 HO1    12.182206  -20.977798  -15.895972 H    930 MOH     0.4215 ****
5888 HC1    12.127358  -23.834311  -13.704648 H    931 MOH     0.0372 ****
5889 C1     13.159083  -24.118044  -13.910416 C    931 MOH     0.1166 ****
5890 HC2    13.429860  -24.943930  -13.253514 H    931 MOH     0.0372 ****
5891 HC3    13.807447  -23.267254  -13.699699 H    931 MOH     0.0372 ****
5892 O1     13.297070  -24.437294  -15.272304 O    931 MOH    -0.6497 ****
5893 HO1    13.000312  -23.644476  -15.724852 H    931 MOH     0.4215 ****
5894 HC1    11.417795  -20.079651  -12.507517 H    932 MOH     0.0372 ****
5895 C1     11.178194  -20.712436  -11.653332 C    932 MOH     0.1166 ****
5896 HC2    10.132613  -20.587921  -11.372610 H    932 MOH     0.0372 ****
5897 HC3    11.810393  -20.405025  -10.819653 H    932 MOH     0.0372 ****
5898 O1     11.480148  -22.062513  -11.969408 O    932 MOH    -0.6497 ****
5899 HO1    11.017691  -22.335631  -12.764903 H    932 MOH     0.4215 ****
5900 HC1    12.179320  -25.477919  -10.765913 H    933 MOH     0.0372 ****
5901 C1     11.169534  -25.078652  -10.673989 C    933 MOH     0.1166 ****
5902 HC2    10.556965  -25.820031  -10.160629 H    933 MOH     0.0372 ****
5903 HC3    10.768275  -24.886775  -11.669595 H    933 MOH     0.0372 ****
5904 O1     11.237661  -23.889833   -9.911728 O    933 MOH    -0.6497 ****
5905 HO1    11.571947  -23.196627  -10.485898 H    933 MOH     0.4215 ****
5906 HC1     7.923093  -18.241718  -12.342054 H    934 MOH     0.0372 ****
5907 C1      8.785655  -17.778764  -12.821472 C    934 MOH     0.1166 ****
5908 HC2     9.572583  -17.664046  -12.075474 H    934 MOH     0.0372 ****
5909 HC3     8.468689  -16.786721  -13.143913 H    934 MOH     0.0372 ****
5910 O1      9.168438  -18.566275  -13.980420 O    934 MOH    -0.6497 ****
5911 HO1     8.474463  -18.520143  -14.641565 H    934 MOH     0.4215 ****
5912 HC1    14.609387  -22.804300   -6.081330 H    935 MOH     0.0372 ****
5913 C1     15.217337  -21.933507   -6.329525 C    935 MOH     0.1166 ****
5914 HC2    16.266959  -22.202951   -6.444076 H    935 MOH     0.0372 ****
5915 HC3    15.160756  -21.211316   -5.514231 H    935 MOH     0.0372 ****
5916 O1     14.822429  -21.371349   -7.539384 O    935 MOH    -0.6497 ****
5917 HO1    15.104176  -21.969841   -8.235177 H    935 MOH     0.4215 ****
5918 HC1    20.190055  -16.554427  -16.769249 H    936 MOH     0.0372 ****
5919 C1     19.175073  -16.937773  -16.873194 C    936 MOH     0.1166 ****
5920 HC2    18.453962  -16.120460  -16.851981 H    936 MOH     0.0372 ****
5921 HC3    18.940091  -17.632611  -16.067092 H    936 MOH     0.0372 ****
5922 O1     19.047478  -17.649758  -18.055476 O    936 MOH    -0.6497 ****
5923 HO1    19.768012  -18.282951  -18.087296 H    936 MOH     0.4215 ****
5924 HC1    14.804531  -18.868787  -15.327458 H    937 MOH     0.0372 ****
5925 C1     14.985819  -19.906962  -15.048151 C    937 MOH     0.1166 ****
5926 HC2    14.326485  -20.544238  -15.637171 H    937 MOH     0.0372 ****
5927 HC3    14.761230  -20.061689  -13.992441 H    937 MOH     0.0372 ****
5928 O1     16.316034  -20.302555  -15.289275 O    937 MOH    -0.6497 ****
5929 HO1    16.495590  -20.194369  -16.226191 H    937 MOH     0.4215 ****
5930 HC1    18.692985  -24.656931  -11.668888 H    938 MOH     0.0372 ****
5931 C1     19.146783  -23.777564  -11.212097 C    938 MOH     0.1166 ****
5932 HC2    19.983940  -23.460764  -11.834351 H    938 MOH     0.0372 ****
5933 HC3    19.450469  -24.026596  -10.195277 H    938 MOH     0.0372 ****
5934 O1     18.196464  -22.779806  -11.247452 O    938 MOH    -0.6497 ****
5935 HO1    17.868529  -22.724284  -12.148306 H    938 MOH     0.4215 ****
5936 HC1    10.525788  -13.184338  -13.998098 H    939 MOH     0.0372 ****
5937 C1      9.618194  -13.248025  -13.398471 C    939 MOH     0.1166 ****
5938 HC2     9.007357  -14.094731  -13.711012 H    939 MOH     0.0372 ****
5939 HC3     9.069134  -12.315994  -13.530700 H    939 MOH     0.0372 ****
5940 O1      9.990007  -13.431328  -12.074060 O    939 MOH    -0.6497 ****
5941 HO1    10.517128  -14.233944  -12.075474 H    939 MOH     0.4215 ****
5942 HC1    26.055933  -21.337873   -6.292048 H    940 MOH     0.0372 ****
5943 C1     25.803054  -20.473203   -5.678279 C    940 MOH     0.1166 ****
5944 HC2    26.610767  -20.289899   -4.970465 H    940 MOH     0.0372 ****
5945 HC3    24.885067  -20.705904   -5.139464 H    940 MOH     0.0372 ****
5946 O1     25.610796  -19.364809   -6.534586 O    940 MOH    -0.6497 ****
5947 HO1    24.925481  -19.635885   -7.149768 H    940 MOH     0.4215 ****
5948 HC1    22.712498  -17.704871  -13.594340 H    941 MOH     0.0372 ****
5949 C1     22.220018  -17.268454  -14.463374 C    941 MOH     0.1166 ****
5950 HC2    21.277782  -16.781005  -14.213058 H    941 MOH     0.0372 ****
5951 HC3    21.967716  -18.102913  -15.118155 H    941 MOH     0.0372 ****
5952 O1     23.057753  -16.343363  -15.163410 O    941 MOH    -0.6497 ****
5953 HO1    22.516776  -15.643626  -15.535348 H    941 MOH     0.4215 ****
5954 HC1    25.367732  -18.341738   -9.845259 H    942 MOH     0.0372 ****
5955 C1     25.028250  -19.087608  -10.564387 C    942 MOH     0.1166 ****
5956 HC2    24.521914  -19.924925  -10.082847 H    942 MOH     0.0372 ****
5957 HC3    25.915060  -19.484425  -11.059362 H    942 MOH     0.0372 ****
5958 O1     24.187050  -18.467071  -11.518981 O    942 MOH    -0.6497 ****
5959 HO1    24.716481  -17.782030  -11.934760 H    942 MOH     0.4215 ****
5960 HC1    18.736287  -20.845525  -15.682426 H    943 MOH     0.0372 ****
5961 C1     19.392734  -20.569958  -14.857232 C    943 MOH     0.1166 ****
5962 HC2    18.845983  -20.605883  -13.913952 H    943 MOH     0.0372 ****
5963 HC3    19.739144  -19.547296  -15.007846 H    943 MOH     0.0372 ****
5964 O1     20.511639  -21.441976  -14.792179 O    943 MOH    -0.6497 ****
5965 HO1    21.116702  -21.115377  -14.121841 H    943 MOH     0.4215 ****
5966 HC1    22.512735  -16.130666   -7.914858 H    944 MOH     0.0372 ****
5967 C1     22.200965  -16.549528   -6.957435 C    944 MOH     0.1166 ****
5968 HC2    21.673845  -15.803251   -6.364880 H    944 MOH     0.0372 ****
5969 HC3    23.093549  -16.883067   -6.429227 H    944 MOH     0.0372 ****
5970 O1     21.386324  -17.663638   -7.184417 O    944 MOH    -0.6497 ****
5971 HO1    20.700432  -17.422363   -7.810206 H    944 MOH     0.4215 ****
5972 HC1    15.192511  -10.736481  -15.634343 H    945 MOH     0.0372 ****
5973 C1     14.284916  -10.356810  -16.103862 C    945 MOH     0.1166 ****
5974 HC2    14.415397  -10.376814  -17.186442 H    945 MOH     0.0372 ****
5975 HC3    14.141733   -9.325983  -15.782128 H    945 MOH     0.0372 ****
5976 O1     13.144649  -11.150037  -15.729802 O    945 MOH    -0.6497 ****
5977 HO1    12.371577  -10.645033  -15.992139 H    945 MOH     0.4215 ****
5978 HC1    17.350068  -19.206408   -9.122596 H    946 MOH     0.0372 ****
5979 C1     17.932038  -18.963909  -10.012137 C    946 MOH     0.1166 ****
5980 HC2    17.895665  -19.785713  -10.727022 H    946 MOH     0.0372 ****
5981 HC3    18.959144  -18.820614   -9.674847 H    946 MOH     0.0372 ****
5982 O1     17.466116  -17.719568  -10.543881 O    946 MOH    -0.6497 ****
5983 HO1    17.881808  -17.042284  -10.005773 H    946 MOH     0.4215 ****
5984 HC1    14.844368  -23.772665  -11.451099 H    947 MOH     0.0372 ****
5985 C1     15.007181  -23.996794  -10.396803 C    947 MOH     0.1166 ****
5986 HC2    15.574716  -24.923517  -10.304879 H    947 MOH     0.0372 ****
5987 HC3    14.023376  -24.114369   -9.942840 H    947 MOH     0.0372 ****
5988 O1     15.700001  -22.920243   -9.804954 O    947 MOH    -0.6497 ****
5989 HO1    16.538314  -22.829612  -10.263160 H    947 MOH     0.4215 ****
5990 HC1    17.702252  -16.596885  -21.477166 H    948 MOH     0.0372 ****
5991 C1     16.854702  -17.261514  -21.307460 C    948 MOH     0.1166 ****
5992 HC2    15.989254  -16.617706  -21.151190 H    948 MOH     0.0372 ****
5993 HC3    17.087374  -17.863272  -20.429234 H    948 MOH     0.0372 ****
5994 O1     16.721334  -17.963292  -22.522977 O    948 MOH    -0.6497 ****
5995 HO1    17.567152  -18.369091  -22.728038 H    948 MOH     0.4215 ****
5996 HC1    19.119647  -21.214582   -6.895917 H    949 MOH     0.0372 ****
5997 C1     19.183156  -22.137631   -7.472209 C    949 MOH     0.1166 ****
5998 HC2    20.214881  -22.341755   -7.757880 H    949 MOH     0.0372 ****
5999 HC3    18.565968  -22.025771   -8.363164 H    949 MOH     0.0372 ****
6000 O1     18.665272  -23.190912   -6.707120 O    949 MOH    -0.6497 ****
6001 HO1    18.915265  -24.015573   -7.131384 H    949 MOH     0.4215 ****
6002 HC1     7.068615  -21.906971  -15.378370 H    950 MOH     0.0372 ****
6003 C1      6.902338  -20.836544  -15.259576 C    950 MOH     0.1166 ****
6004 HC2     7.255676  -20.515661  -14.279526 H    950 MOH     0.0372 ****
6005 HC3     5.835395  -20.623438  -15.331701 H    950 MOH     0.0372 ****
6006 O1      7.589385  -20.122109  -16.269325 O    950 MOH    -0.6497 ****
6007 HO1     7.498741  -20.652016  -17.064113 H    950 MOH     0.4215 ****
6008 HC1    13.731814  -15.590962  -18.227303 H    951 MOH     0.0372 ****
6009 C1     14.603036  -16.246200  -18.246395 C    951 MOH     0.1166 ****
6010 HC2    14.602459  -16.817748  -19.174119 H    951 MOH     0.0372 ****
6011 HC3    14.575323  -16.955327  -17.418373 H    951 MOH     0.0372 ****
6012 O1     15.781408  -15.461547  -18.172856 O    951 MOH    -0.6497 ****
6013 HO1    15.751963  -14.950828  -17.360390 H    951 MOH     0.4215 ****
6014 HC1     9.546602  -22.356044  -15.702225 H    952 MOH     0.0372 ****
6015 C1      9.813915  -23.360743  -15.373420 C    952 MOH     0.1166 ****
6016 HC2    10.758461  -23.650191  -15.833747 H    952 MOH     0.0372 ****
6017 HC3     9.051236  -24.074361  -15.683133 H    952 MOH     0.0372 ****
6018 O1      9.981347  -23.352986  -13.944358 O    952 MOH    -0.6497 ****
6019 HO1     9.152849  -23.165192  -13.497466 H    952 MOH     0.4215 ****
6020 HC1    12.428157  -16.278452  -13.625452 H    953 MOH     0.0372 ****
6021 C1     12.057499  -16.675269  -12.680758 C    953 MOH     0.1166 ****
6022 HC2    12.911977  -16.798152  -12.015370 H    953 MOH     0.0372 ****
6023 HC3    11.585803  -17.650982  -12.796723 H    953 MOH     0.0372 ****
6024 O1     11.202443  -15.739972  -12.118608 O    953 MOH    -0.6497 ****
6025 HO1    11.387195  -15.738339  -11.176742 H    953 MOH     0.4215 ****
6026 HC1    11.716285  -20.953303   -7.887281 H    954 MOH     0.0372 ****
6027 C1     11.649889  -21.213765   -6.830863 C    954 MOH     0.1166 ****
6028 HC2    11.757854  -22.291949   -6.707120 H    954 MOH     0.0372 ****
6029 HC3    10.666084  -20.899006   -6.482260 H    954 MOH     0.0372 ****
6030 O1     12.633694  -20.494840   -6.107493 O    954 MOH    -0.6497 ****
6031 HO1    13.456418  -20.603842   -6.590447 H    954 MOH     0.4215 ****
6032 HC1    19.262830  -18.392361   -3.038650 H    955 MOH     0.0372 ****
6033 C1     19.700461  -19.295815   -3.463621 C    955 MOH     0.1166 ****
6034 HC2    19.944103  -19.100672   -4.507310 H    955 MOH     0.0372 ****
6035 HC3    18.994939  -20.122109   -3.370283 H    955 MOH     0.0372 ****
6036 O1     20.836687  -19.593428   -2.716209 O    955 MOH    -0.6497 ****
6037 HO1    21.464266  -18.867562   -2.764292 H    955 MOH     0.4215 ****
6038 HC1    12.425848  -14.864688  -16.700660 H    956 MOH     0.0372 ****
6039 C1     12.992229  -14.559726  -15.820312 C    956 MOH     0.1166 ****
6040 HC2    13.377899  -15.453382  -15.328873 H    956 MOH     0.0372 ****
6041 HC3    12.338091  -14.035944  -15.123812 H    956 MOH     0.0372 ****
6042 O1     14.086885  -13.745271  -16.225484 O    956 MOH    -0.6497 ****
6043 HO1    13.735856  -12.869987  -16.402261 H    956 MOH     0.4215 ****
6044 HC1     4.342367  -24.269504  -17.303822 H    957 MOH     0.0372 ****
6045 C1      4.901242  -23.637127  -16.614393 C    957 MOH     0.1166 ****
6046 HC2     4.946275  -22.636510  -17.045021 H    957 MOH     0.0372 ****
6047 HC3     5.914492  -24.031495  -16.533783 H    957 MOH     0.0372 ****
6048 O1      4.236135  -23.624880  -15.326044 O    957 MOH    -0.6497 ****
6049 HO1     4.703211  -24.242968  -14.760359 H    957 MOH     0.4215 ****
6050 HC1    21.243719  -20.606292   -6.840763 H    958 MOH     0.0372 ****
6051 C1     22.169211  -20.306637   -6.347202 C    958 MOH     0.1166 ****
6052 HC2    22.613194  -21.160693   -5.835257 H    958 MOH     0.0372 ****
6053 HC3    21.923260  -19.554644   -5.597669 H    958 MOH     0.0372 ****
6054 O1     23.051402  -19.807350   -7.373214 O    958 MOH    -0.6497 ****
6055 HO1    22.860877  -18.869195   -7.448168 H    958 MOH     0.4215 ****
6056 HC1     5.843478  -27.410566  -13.971935 H    959 MOH     0.0372 ****
6057 C1      6.431220  -26.494865  -13.910416 C    959 MOH     0.1166 ****
6058 HC2     6.897142  -26.284209  -14.873496 H    959 MOH     0.0372 ****
6059 HC3     7.219881  -26.643467  -13.173611 H    959 MOH     0.0372 ****
6060 O1      5.649488  -25.370141  -13.534943 O    959 MOH    -0.6497 ****
6061 HO1     5.249384  -25.534257  -12.677929 H    959 MOH     0.4215 ****
6062 HC1    19.660624  -16.737323  -11.492818 H    960 MOH     0.0372 ****
6063 C1     20.606324  -16.394394  -11.072797 C    960 MOH     0.1166 ****
6064 HC2    20.492586  -15.419905  -10.596914 H    960 MOH     0.0372 ****
6065 HC3    21.336095  -16.280901  -11.874656 H    960 MOH     0.0372 ****
6066 O1     21.047997  -17.316627  -10.100525 O    960 MOH    -0.6497 ****
6067 HO1    21.879381  -17.704871  -10.382661 H    960 MOH     0.4215 ****
6068 HC1    24.478497   -2.062185  -16.150531 H    961 MOH     0.0372 ****
6069 C1     23.442153   -1.923380  -15.843646 C    961 MOH     0.1166 ****
6070 HC2    22.878659   -1.559223  -16.702074 H    961 MOH     0.0372 ****
6071 HC3    23.372294   -1.173428  -15.055222 H    961 MOH     0.0372 ****
6072 O1     22.916764   -3.166088  -15.426453 O    961 MOH    -0.6497 ****
6073 HO1    22.154085   -3.013811  -14.864304 H    961 MOH     0.4215 ****
6074 HC1    18.976926  -12.603156  -12.059211 H    962 MOH     0.0372 ****
6075 C1     18.176141  -12.997115  -11.433421 C    962 MOH     0.1166 ****
6076 HC2    17.610338  -13.727471  -12.012542 H    962 MOH     0.0372 ****
6077 HC3    17.503528  -12.220219  -11.072090 H    962 MOH     0.0372 ****
6078 O1     18.673240  -13.738086  -10.389025 O    962 MOH    -0.6497 ****
6079 HO1    19.217681  -13.142043   -9.870008 H    962 MOH     0.4215 ****
6080 HC1    25.528120   -3.513507  -11.481505 H    963 MOH     0.0372 ****
6081 C1     26.132028   -2.961964  -10.760963 C    963 MOH     0.1166 ****
6082 HC2    26.943782   -3.597198  -10.407409 H    963 MOH     0.0372 ****
6083 HC3    25.483664   -2.676190   -9.932234 H    963 MOH     0.0372 ****
6084 O1     26.636632   -1.838056  -11.416451 O    963 MOH    -0.6497 ****
6085 HO1    27.449541   -1.576369  -10.977338 H    963 MOH     0.4215 ****
6086 HC1    23.589955   -8.835024   -7.096736 H    964 MOH     0.0372 ****
6087 C1     22.569777   -9.127738   -6.848541 C    964 MOH     0.1166 ****
6088 HC2    22.408696   -9.070175   -5.773032 H    964 MOH     0.0372 ****
6089 HC3    22.361353  -10.149992   -7.165325 H    964 MOH     0.0372 ****
6090 O1     21.683544   -8.235307   -7.449582 O    964 MOH    -0.6497 ****
6091 HO1    22.135032   -7.858902   -8.209014 H    964 MOH     0.4215 ****
6092 HC1    18.188843   -6.048321  -10.892485 H    965 MOH     0.0372 ****
6093 C1     19.229228   -6.020968  -11.218461 C    965 MOH     0.1166 ****
6094 HC2    19.813507   -6.660693  -10.555902 H    965 MOH     0.0372 ****
6095 HC3    19.570442   -4.987284  -11.164721 H    965 MOH     0.0372 ****
6096 O1     19.296201   -6.503110  -12.541458 O    965 MOH    -0.6497 ****
6097 HO1    18.701530   -7.255919  -12.585298 H    965 MOH     0.4215 ****
6098 HC1    21.069244  -10.730521  -15.052394 H    966 MOH     0.0372 ****
6099 C1     21.983766  -10.424334  -15.560097 C    966 MOH     0.1166 ****
6100 HC2    22.579014   -9.769912  -14.922993 H    966 MOH     0.0372 ****
6101 HC3    21.708370   -9.878098  -16.462365 H    966 MOH     0.0372 ****
6102 O1     22.685824  -11.563755  -15.958198 O    966 MOH    -0.6497 ****
6103 HO1    23.620554  -11.364938  -15.868395 H    966 MOH     0.4215 ****
6104 HC1    18.015061  -11.068142  -19.908096 H    967 MOH     0.0372 ****
6105 C1     18.057785  -10.826459  -18.846022 C    967 MOH     0.1166 ****
6106 HC2    19.094706  -10.888513  -18.515096 H    967 MOH     0.0372 ****
6107 HC3    17.460227  -11.528238  -18.264073 H    967 MOH     0.0372 ****
6108 O1     17.624194   -9.532720  -18.576614 O    967 MOH    -0.6497 ****
6109 HO1    16.854587   -9.341252  -19.117551 H    967 MOH     0.4215 ****
6110 HC1    29.000882   -1.572287  -14.423776 H    968 MOH     0.0372 ****
6111 C1     28.335197   -0.713332  -14.338923 C    968 MOH     0.1166 ****
6112 HC2    27.293079   -1.033399  -14.345994 H    968 MOH     0.0372 ****
6113 HC3    28.470297   -0.088712  -15.221392 H    968 MOH     0.0372 ****
6114 O1     28.560941    0.083568  -13.135427 O    968 MOH    -0.6497 ****
6115 HO1    28.488194   -0.483489  -12.365388 H    968 MOH     0.4215 ****
6116 HC1    21.324432   -8.958723  -19.521309 H    969 MOH     0.0372 ****
6117 C1     20.784033   -8.089154  -19.894661 C    969 MOH     0.1166 ****
6118 HC2    20.340628   -8.418611  -20.834406 H    969 MOH     0.0372 ****
6119 HC3    21.506875   -7.286130  -20.041032 H    969 MOH     0.0372 ****
6120 O1     19.792722   -7.750716  -18.901176 O    969 MOH    -0.6497 ****
6121 HO1    19.157059   -8.464743  -18.818445 H    969 MOH     0.4215 ****
6122 HC1    25.941502    2.681660  -11.690101 H    970 MOH     0.0372 ****
6123 C1     25.487128    2.979682  -12.634796 C    970 MOH     0.1166 ****
6124 HC2    24.406328    2.844960  -12.586713 H    970 MOH     0.0372 ****
6125 HC3    25.909748    2.355062  -13.422513 H    970 MOH     0.0372 ****
6126 O1     25.768875    4.337107  -12.894304 O    970 MOH    -0.6497 ****
6127 HO1    25.499252    4.531433  -13.795158 H    970 MOH     0.4215 ****
6128 HC1    26.982465    5.595329   -8.566811 H    971 MOH     0.0372 ****
6129 C1     26.640674    4.925801   -9.355942 C    971 MOH     0.1166 ****
6130 HC2    26.142420    4.049701   -8.940163 H    971 MOH     0.0372 ****
6131 HC3    27.513050    4.607776   -9.926577 H    971 MOH     0.0372 ****
6132 O1     25.859519    5.655749  -10.278009 O    971 MOH    -0.6497 ****
6133 HO1    25.886654    5.168709  -11.104617 H    971 MOH     0.4215 ****
6134 HC1    19.584299   -8.629675   -9.453522 H    972 MOH     0.0372 ****
6135 C1     19.192855   -9.398815  -10.118203 C    972 MOH     0.1166 ****
6136 HC2    19.692263   -9.364930  -11.086232 H    972 MOH     0.0372 ****
6137 HC3    18.121293   -9.236332  -10.242654 H    972 MOH     0.0372 ****
6138 O1     19.333729  -10.665609   -9.533426 O    972 MOH    -0.6497 ****
6139 HO1    18.887437  -10.666017   -8.684190 H    972 MOH     0.4215 ****
6140 HC1    28.849616   -3.671091  -19.962543 H    973 MOH     0.0372 ****
6141 C1     28.612325   -3.957682  -18.937239 C    973 MOH     0.1166 ****
6142 HC2    29.374427   -4.620269  -18.527824 H    973 MOH     0.0372 ****
6143 HC3    27.659120   -4.486363  -18.956330 H    973 MOH     0.0372 ****
6144 O1     28.510711   -2.831324  -18.099317 O    973 MOH    -0.6497 ****
6145 HO1    29.284361   -2.274882  -18.218818 H    973 MOH     0.4215 ****
6146 HC1    26.540792  -18.653395  -13.610603 H    974 MOH     0.0372 ****
6147 C1     26.133760  -17.652779  -13.755560 C    974 MOH     0.1166 ****
6148 HC2    25.088179  -17.698502  -14.061030 H    974 MOH     0.0372 ****
6149 HC3    26.690326  -17.195132  -14.572268 H    974 MOH     0.0372 ****
6150 O1     26.288490  -16.828934  -12.598733 O    974 MOH    -0.6497 ****
6151 HO1    26.571392  -15.948750  -12.858949 H    974 MOH     0.4215 ****
6152 HC1    25.946699  -14.247988  -11.388167 H    975 MOH     0.0372 ****
6153 C1     26.035033  -13.262068  -10.932083 C    975 MOH     0.1166 ****
6154 HC2    25.434012  -13.230225  -10.024158 H    975 MOH     0.0372 ****
6155 HC3    25.682849  -12.526813  -11.655453 H    975 MOH     0.0372 ****
6156 O1     27.375063  -13.058352  -10.624491 O    975 MOH    -0.6497 ****
6157 HO1    27.860037  -13.524980  -11.308263 H    975 MOH     0.4215 ****
6158 HC1    27.910267  -19.085322  -10.574287 H    976 MOH     0.0372 ****
6159 C1     28.986448  -19.077157  -10.743992 C    976 MOH     0.1166 ****
6160 HC2    29.406759  -18.216978  -10.224269 H    976 MOH     0.0372 ****
6161 HC3    29.190252  -19.016736  -11.813138 H    976 MOH     0.0372 ****
6162 O1     29.579964  -20.221885  -10.243361 O    976 MOH    -0.6497 ****
6163 HO1    29.118084  -20.483164   -9.444330 H    976 MOH     0.4215 ****
6164 HC1    24.556439   -4.417369  -17.975573 H    977 MOH     0.0372 ****
6165 C1     23.973893   -5.290204  -17.680003 C    977 MOH     0.1166 ****
6166 HC2    24.309911   -6.205088  -18.167199 H    977 MOH     0.0372 ****
6167 HC3    22.953715   -5.110166  -18.017293 H    977 MOH     0.0372 ****
6168 O1     23.966965   -5.437173  -16.277103 O    977 MOH    -0.6497 ****
6169 HO1    23.780480   -4.575361  -15.895972 H    977 MOH     0.4215 ****
6170 HC1    23.725632   -7.431874  -13.704648 H    978 MOH     0.0372 ****
6171 C1     24.757357   -7.715607  -13.910416 C    978 MOH     0.1166 ****
6172 HC2    25.028134   -8.541493  -13.253514 H    978 MOH     0.0372 ****
6173 HC3    25.405721   -6.864818  -13.699699 H    978 MOH     0.0372 ****
6174 O1     24.895344   -8.034857  -15.272304 O    978 MOH    -0.6497 ****
6175 HO1    24.598586   -7.242039  -15.724852 H    978 MOH     0.4215 ****
6176 HC1    25.076054  -15.906701   -5.512816 H    979 MOH     0.0372 ****
6177 C1     26.068519  -15.885880   -5.963243 C    979 MOH     0.1166 ****
6178 HC2    26.591599  -14.974670   -5.673329 H    979 MOH     0.0372 ****
6179 HC3    26.008475  -15.941402   -7.049359 H    979 MOH     0.0372 ****
6180 O1     26.803486  -16.950592   -5.514938 O    979 MOH    -0.6497 ****
6181 HO1    26.356617  -17.746676   -5.810508 H    979 MOH     0.4215 ****
6182 HC1    23.016069   -3.677215  -12.507517 H    980 MOH     0.0372 ****
6183 C1     22.776468   -4.310000  -11.653332 C    980 MOH     0.1166 ****
6184 HC2    21.730887   -4.185484  -11.372610 H    980 MOH     0.0372 ****
6185 HC3    23.408667   -4.002589  -10.819653 H    980 MOH     0.0372 ****
6186 O1     23.078422   -5.660077  -11.969408 O    980 MOH    -0.6497 ****
6187 HO1    22.615965   -5.933195  -12.764903 H    980 MOH     0.4215 ****
6188 HC1    20.422611  -11.615603  -21.607274 H    981 MOH     0.0372 ****
6189 C1     21.210694  -11.581310  -22.359635 C    981 MOH     0.1166 ****
6190 HC2    20.790383  -11.189800  -23.286652 H    981 MOH     0.0372 ****
6191 HC3    21.608489  -12.579069  -22.546312 H    981 MOH     0.0372 ****
6192 O1     22.217016  -10.681123  -22.009618 O    981 MOH    -0.6497 ****
6193 HO1    23.044359  -11.146117  -22.153160 H    981 MOH     0.4215 ****
6194 HC1    23.777594   -9.075482  -10.765913 H    982 MOH     0.0372 ****
6195 C1     22.767808   -8.676215  -10.673989 C    982 MOH     0.1166 ****
6196 HC2    22.155239   -9.417594  -10.160629 H    982 MOH     0.0372 ****
6197 HC3    22.366550   -8.484339  -11.669595 H    982 MOH     0.0372 ****
6198 O1     22.835935   -7.487396   -9.911728 O    982 MOH    -0.6497 ****
6199 HO1    23.170221   -6.794191  -10.485898 H    982 MOH     0.4215 ****
6200 HC1    19.521367   -1.839281  -12.342054 H    983 MOH     0.0372 ****
6201 C1     20.383929   -1.376328  -12.821472 C    983 MOH     0.1166 ****
6202 HC2    21.170857   -1.261610  -12.075474 H    983 MOH     0.0372 ****
6203 HC3    20.066963   -0.384284  -13.143913 H    983 MOH     0.0372 ****
6204 O1     20.766712   -2.163839  -13.980420 O    983 MOH    -0.6497 ****
6205 HO1    20.072737   -2.117706  -14.641565 H    983 MOH     0.4215 ****
6206 HC1    26.207661   -6.401864   -6.081330 H    984 MOH     0.0372 ****
6207 C1     26.815611   -5.531070   -6.329525 C    984 MOH     0.1166 ****
6208 HC2    27.865233   -5.800514   -6.444076 H    984 MOH     0.0372 ****
6209 HC3    26.759030   -4.808879   -5.514231 H    984 MOH     0.0372 ****
6210 O1     26.420703   -4.968912   -7.539384 O    984 MOH    -0.6497 ****
6211 HO1    26.702450   -5.567404   -8.235177 H    984 MOH     0.4215 ****
6212 HC1    25.267157  -14.145926  -15.879709 H    985 MOH     0.0372 ****
6213 C1     26.123945  -14.403939  -16.503377 C    985 MOH     0.1166 ****
6214 HC2    26.309852  -13.610712  -17.226747 H    985 MOH     0.0372 ****
6215 HC3    25.877994  -15.307800  -17.060577 H    985 MOH     0.0372 ****
6216 O1     27.287306  -14.594591  -15.702225 O    985 MOH    -0.6497 ****
6217 HO1    27.983590  -14.942418  -16.263668 H    985 MOH     0.4215 ****
6218 HC1    26.402805   -2.466350  -15.327458 H    986 MOH     0.0372 ****
6219 C1     26.584093   -3.504526  -15.048151 C    986 MOH     0.1166 ****
6220 HC2    25.924759   -4.141801  -15.637171 H    986 MOH     0.0372 ****
6221 HC3    26.359504   -3.659252  -13.992441 H    986 MOH     0.0372 ****
6222 O1     27.914308   -3.900118  -15.289275 O    986 MOH    -0.6497 ****
6223 HO1    28.093864   -3.791933  -16.226191 H    986 MOH     0.4215 ****
6224 HC1    22.124062    3.218099  -13.998098 H    987 MOH     0.0372 ****
6225 C1     21.216468    3.154412  -13.398471 C    987 MOH     0.1166 ****
6226 HC2    20.605631    2.307705  -13.711012 H    987 MOH     0.0372 ****
6227 HC3    20.667408    4.086443  -13.530700 H    987 MOH     0.0372 ****
6228 O1     21.588281    2.971109  -12.074060 O    987 MOH    -0.6497 ****
6229 HO1    22.115402    2.168492  -12.075474 H    987 MOH     0.4215 ****
6230 HC1    27.153361   -9.839723   -7.371800 H    988 MOH     0.0372 ****
6231 C1     27.498616  -10.682756   -7.969305 C    988 MOH     0.1166 ****
6232 HC2    28.238779  -11.214703   -7.370386 H    988 MOH     0.0372 ****
6233 HC3    27.940289  -10.296961   -8.887837 H    988 MOH     0.0372 ****
6234 O1     26.446107  -11.600498   -8.303060 O    988 MOH    -0.6497 ****
6235 HO1    26.724967  -12.113666   -9.064614 H    988 MOH     0.4215 ****
6236 HC1    27.672399   -9.175503  -18.826223 H    989 MOH     0.0372 ****
6237 C1     27.041932   -9.489038  -17.994665 C    989 MOH     0.1166 ****
6238 HC2    26.065633   -9.801756  -18.365189 H    989 MOH     0.0372 ****
6239 HC3    26.871614   -8.661927  -17.304529 H    989 MOH     0.0372 ****
6240 O1     27.644108  -10.543135  -17.298872 O    989 MOH    -0.6497 ****
6241 HO1    26.993435  -10.897494  -16.689346 H    989 MOH     0.4215 ****
6242 HC1    26.790785    5.665955  -15.634343 H    990 MOH     0.0372 ****
6243 C1     25.883190    6.045626  -16.103862 C    990 MOH     0.1166 ****
6244 HC2    26.013671    6.025622  -17.186442 H    990 MOH     0.0372 ****
6245 HC3    25.740007    7.076453  -15.782128 H    990 MOH     0.0372 ****
6246 O1     24.742923    5.252400  -15.729802 O    990 MOH    -0.6497 ****
6247 HO1    23.969851    5.757403  -15.992139 H    990 MOH     0.4215 ****
6248 HC1    19.672633  -14.510900  -15.629393 H    991 MOH     0.0372 ****
6249 C1     20.316379  -13.726655  -16.026080 C    991 MOH     0.1166 ****
6250 HC2    20.350442  -12.925263  -15.288568 H    991 MOH     0.0372 ****
6251 HC3    19.917430  -13.286563  -16.941076 H    991 MOH     0.0372 ****
6252 O1     21.628119  -14.191241  -16.256597 O    991 MOH    -0.6497 ****
6253 HO1    22.070369  -13.404139  -16.581866 H    991 MOH     0.4215 ****
6254 HC1    26.442642   -7.370229  -11.451099 H    992 MOH     0.0372 ****
6255 C1     26.605455   -7.594357  -10.396803 C    992 MOH     0.1166 ****
6256 HC2    27.172991   -8.521081  -10.304879 H    992 MOH     0.0372 ****
6257 HC3    25.621650   -7.711933   -9.942840 H    992 MOH     0.0372 ****
6258 O1     27.298276   -6.517806   -9.804954 O    992 MOH    -0.6497 ****
6259 HO1    28.136588   -6.427175  -10.263160 H    992 MOH     0.4215 ****
6260 HC1    24.378038  -13.436390   -6.691563 H    993 MOH     0.0372 ****
6261 C1     23.984862  -13.001606   -5.773032 C    993 MOH     0.1166 ****
6262 HC2    23.800688  -11.936894   -5.914453 H    993 MOH     0.0372 ****
6263 HC3    24.684033  -13.145717   -4.949252 H    993 MOH     0.0372 ****
6264 O1     22.820347  -13.662560   -5.444227 O    993 MOH    -0.6497 ****
6265 HO1    22.395994  -13.213078   -4.709543 H    993 MOH     0.4215 ****
6266 HC1    29.300526   -0.194449  -21.477166 H    994 MOH     0.0372 ****
6267 C1     28.452976   -0.859077  -21.307460 C    994 MOH     0.1166 ****
6268 HC2    27.587528   -0.215269  -21.151190 H    994 MOH     0.0372 ****
6269 HC3    28.685648   -1.460835  -20.429234 H    994 MOH     0.0372 ****
6270 O1     28.319608   -1.560856  -22.522977 O    994 MOH    -0.6497 ****
6271 HO1    29.165426   -1.966655  -22.728038 H    994 MOH     0.4215 ****
6272 HC1    18.666889   -5.504534  -15.378370 H    995 MOH     0.0372 ****
6273 C1     18.500612   -4.434107  -15.259576 C    995 MOH     0.1166 ****
6274 HC2    18.853951   -4.113224  -14.279526 H    995 MOH     0.0372 ****
6275 HC3    17.433669   -4.221002  -15.331701 H    995 MOH     0.0372 ****
6276 O1     19.187659   -3.719673  -16.269325 O    995 MOH    -0.6497 ****
6277 HO1    19.097015   -4.249579  -17.064113 H    995 MOH     0.4215 ****
6278 HC1    25.330089    0.811475  -18.227303 H    996 MOH     0.0372 ****
6279 C1     26.201310    0.156236  -18.246395 C    996 MOH     0.1166 ****
6280 HC2    26.200733   -0.415311  -19.174119 H    996 MOH     0.0372 ****
6281 HC3    26.173597   -0.552891  -17.418373 H    996 MOH     0.0372 ****
6282 O1     27.379682    0.940890  -18.172856 O    996 MOH    -0.6497 ****
6283 HO1    27.350237    1.451608  -17.360390 H    996 MOH     0.4215 ****
6284 HC1    21.144876   -5.953607  -15.702225 H    997 MOH     0.0372 ****
6285 C1     21.412190   -6.958306  -15.373420 C    997 MOH     0.1166 ****
6286 HC2    22.356735   -7.247754  -15.833747 H    997 MOH     0.0372 ****
6287 HC3    20.649510   -7.671924  -15.683133 H    997 MOH     0.0372 ****
6288 O1     21.579621   -6.950550  -13.944358 O    997 MOH    -0.6497 ****
6289 HO1    20.751124   -6.762755  -13.497466 H    997 MOH     0.4215 ****
6290 HC1    24.026432    0.123985  -13.625452 H    998 MOH     0.0372 ****
6291 C1     23.655773   -0.272832  -12.680758 C    998 MOH     0.1166 ****
6292 HC2    24.510251   -0.395715  -12.015370 H    998 MOH     0.0372 ****
6293 HC3    23.184078   -1.248546  -12.796723 H    998 MOH     0.0372 ****
6294 O1     22.800717    0.662464  -12.118608 O    998 MOH    -0.6497 ****
6295 HO1    22.985469    0.664097  -11.176742 H    998 MOH     0.4215 ****
6296 HC1    23.910384  -12.930571   -1.473822 H    999 MOH     0.0372 ****
6297 C1     24.804700  -13.373112   -1.034002 C    999 MOH     0.1166 ****
6298 HC2    24.870518  -13.099994    0.018880 H    999 MOH     0.0372 ****
6299 HC3    25.694974  -13.003239   -1.543119 H    999 MOH     0.0372 ****
6300 O1     24.753315  -14.785651   -1.149967 O    999 MOH    -0.6497 ****
6301 HO1    25.658601  -15.093878   -1.061579 H    999 MOH     0.4215 ****
6302 HC1    23.314559   -4.550866   -7.887281 H    1000 MOH     0.0372 ****
6303 C1     23.248163   -4.811329   -6.830863 C    1000 MOH     0.1166 ****
6304 HC2    23.356128   -5.889512   -6.707120 H    1000 MOH     0.0372 ****
6305 HC3    22.264358   -4.496569   -6.482260 H    1000 MOH     0.0372 ****
6306 O1     24.231968   -4.092403   -6.107493 O    1000 MOH    -0.6497 ****
6307 HO1    25.054692   -4.201406   -6.590447 H    1000 MOH     0.4215 ****
6308 HC1    27.641222   -9.187750   -3.671510 H    1001 MOH     0.0372 ****
6309 C1     27.230725  -10.144276   -3.348362 C    1001 MOH     0.1166 ****
6310 HC2    28.009571  -10.906884   -3.327149 H    1001 MOH     0.0372 ****
6311 HC3    26.445529  -10.423110   -4.050519 H    1001 MOH     0.0372 ****
6312 O1     26.634900   -9.999756   -2.092541 O    1001 MOH    -0.6497 ****
6313 HO1    27.255552   -9.550683   -1.514127 H    1001 MOH     0.4215 ****
6314 HC1    24.024122    1.537749  -16.700660 H    1002 MOH     0.0372 ****
6315 C1     24.590503    1.842710  -15.820312 C    1002 MOH     0.1166 ****
6316 HC2    24.976173    0.949055  -15.328873 H    1002 MOH     0.0372 ****
6317 HC3    23.936365    2.366493  -15.123812 H    1002 MOH     0.0372 ****
6318 O1     25.685159    2.657166  -16.225484 O    1002 MOH    -0.6497 ****
6319 HO1    25.334130    3.532450  -16.402261 H    1002 MOH     0.4215 ****
6320 HC1    15.940641   -7.867067  -17.303822 H    1003 MOH     0.0372 ****
6321 C1     16.499516   -7.234691  -16.614393 C    1003 MOH     0.1166 ****
6322 HC2    16.544549   -6.234074  -17.045021 H    1003 MOH     0.0372 ****
6323 HC3    17.512766   -7.629058  -16.533783 H    1003 MOH     0.0372 ****
6324 O1     15.834409   -7.222443  -15.326044 O    1003 MOH    -0.6497 ****
6325 HO1    16.301485   -7.840531  -14.760359 H    1003 MOH     0.4215 ****
6326 HC1    24.415566  -14.080198  -19.404636 H    1004 MOH     0.0372 ****
6327 C1     23.533375  -13.496811  -19.143714 C    1004 MOH     0.1166 ****
6328 HC2    23.837638  -12.498236  -18.832587 H    1004 MOH     0.0372 ****
6329 HC3    22.998171  -13.986709  -18.330541 H    1004 MOH     0.0372 ****
6330 O1     22.712382  -13.441698  -20.311147 O    1004 MOH    -0.6497 ****
6331 HO1    22.621738  -14.330454  -20.663993 H    1004 MOH     0.4215 ****
6332 HC1    26.145884  -12.217361  -14.338216 H    1005 MOH     0.0372 ****
6333 C1     25.834115  -11.173878  -14.373571 C    1005 MOH     0.1166 ****
6334 HC2    26.640096  -10.516599  -14.045474 H    1005 MOH     0.0372 ****
6335 HC3    24.991184  -11.050587  -13.694749 H    1005 MOH     0.0372 ****
6336 O1     25.380895  -10.827684  -15.667577 O    1005 MOH    -0.6497 ****
6337 HO1    25.169585   -9.891979  -15.637878 H    1005 MOH     0.4215 ****
6338 HC1    21.871183  -13.046513  -13.521508 H    1006 MOH     0.0372 ****
6339 C1     22.642523  -13.339635  -12.808744 C    1006 MOH     0.1166 ****
6340 HC2    23.540303  -13.596015  -13.371601 H    1006 MOH     0.0372 ****
6341 HC3    22.312279  -14.227984  -12.269929 H    1006 MOH     0.0372 ****
6342 O1     22.902908  -12.262268  -11.900112 O    1006 MOH    -0.6497 ****
6343 HO1    22.236646  -12.287171  -11.209269 H    1006 MOH     0.4215 ****
6344 HC1    21.741857  -12.435774   -7.638379 H    1007 MOH     0.0372 ****
6345 C1     22.225099  -12.586417   -8.603580 C    1007 MOH     0.1166 ****
6346 HC2    22.680628  -13.576011   -8.623379 H    1007 MOH     0.0372 ****
6347 HC3    22.985469  -11.817278   -8.742173 H    1007 MOH     0.0372 ****
6348 O1     21.193951  -12.537019   -9.589994 O    1007 MOH    -0.6497 ****
6349 HO1    20.681264  -11.736036   -9.459886 H    1007 MOH     0.4215 ****
6350 HC1    17.441752  -11.008129  -13.971935 H    1008 MOH     0.0372 ****
6351 C1     18.029494  -10.092429  -13.910416 C    1008 MOH     0.1166 ****
6352 HC2    18.495416   -9.881772  -14.873496 H    1008 MOH     0.0372 ****
6353 HC3    18.818155  -10.241031  -13.173611 H    1008 MOH     0.0372 ****
6354 O1     17.247762   -8.967705  -13.534943 O    1008 MOH    -0.6497 ****
6355 HO1    16.847658   -9.131820  -12.677929 H    1008 MOH     0.4215 ****
6356 HC1    27.010062    9.271849  -12.192854 H    1009 MOH     0.0372 ****
6357 C1     26.575318    8.386359  -11.729699 C    1009 MOH     0.1166 ****
6358 HC2    26.163089    7.711524  -12.479940 H    1009 MOH     0.0372 ****
6359 HC3    25.753171    8.672541  -11.072797 H    1009 MOH     0.0372 ****
6360 O1     27.480603    7.683763  -10.934204 O    1009 MOH    -0.6497 ****
6361 HO1    26.954059    6.966063  -10.573580 H    1009 MOH     0.4215 ****
6362 HC1    27.538915    8.535369  -17.303822 H    1010 MOH     0.0372 ****
6363 C1     28.097790    9.167746  -16.614393 C    1010 MOH     0.1166 ****
6364 HC2    28.142824   10.168363  -17.045021 H    1010 MOH     0.0372 ****
6365 HC3    29.111040    8.773378  -16.533783 H    1010 MOH     0.0372 ****
6366 O1     27.432683    9.179993  -15.326044 O    1010 MOH    -0.6497 ****
6367 HO1    27.899759    8.561906  -14.760359 H    1010 MOH     0.4215 ****
6368 HC1   -28.496162   -6.196515   14.242757 H    1011 MOH     0.0372 ****
6369 C1    -28.413601   -5.256727   14.788643 C    1011 MOH     0.1166 ****
6370 HC2   -29.240366   -4.601081   14.515700 H    1011 MOH     0.0372 ****
6371 HC3   -27.456354   -4.794590   14.543984 H    1011 MOH     0.0372 ****
6372 O1    -28.454593   -5.614761   16.130025 O    1011 MOH    -0.6497 ****
6373 HO1   -28.230581   -4.871749   16.694296 H    1011 MOH     0.4215 ****
6374 HC1   -20.646623    9.787467   15.076436 H    1012 MOH     0.0372 ****
6375 C1    -20.213033    9.980569   16.057193 C    1012 MOH     0.1166 ****
6376 HC2   -19.927245   11.031400   16.108104 H    1012 MOH     0.0372 ****
6377 HC3   -19.325068    9.361256   16.183765 H    1012 MOH     0.0372 ****
6378 O1    -21.167393    9.665809   17.064820 O    1012 MOH    -0.6497 ****
6379 HO1   -20.966475    8.774195   17.357562 H    1012 MOH     0.4215 ****
6380 HC1   -27.283842   -1.066222    7.443925 H    1013 MOH     0.0372 ****
6381 C1    -27.470903   -2.052142    7.868896 C    1013 MOH     0.1166 ****
6382 HC2   -27.862924   -1.957428    8.881473 H    1013 MOH     0.0372 ****
6383 HC3   -26.513656   -2.568576    7.937486 H    1013 MOH     0.0372 ****
6384 O1    -28.312103   -2.855983    7.019661 O    1013 MOH    -0.6497 ****
6385 HO1   -29.028017   -3.202177    7.557062 H    1013 MOH     0.4215 ****
6386 HC1   -24.653434   -0.594287   14.080829 H    1014 MOH     0.0372 ****
6387 C1    -25.502139   -0.159503   14.609038 C    1014 MOH     0.1166 ****
6388 HC2   -25.638394    0.867650   14.271041 H    1014 MOH     0.0372 ****
6389 HC3   -25.337594   -0.171750   15.686669 H    1014 MOH     0.0372 ****
6390 O1    -26.667809   -0.857607   14.275284 O    1014 MOH    -0.6497 ****
6391 HO1   -26.640674   -1.658182   14.804907 H    1014 MOH     0.4215 ****
6392 HC1   -16.576881    8.176111   10.461150 H    1015 MOH     0.0372 ****
6393 C1    -16.771448    8.917490   11.236139 C    1015 MOH     0.1166 ****
6394 HC2   -17.835505    8.959540   11.468777 H    1015 MOH     0.0372 ****
6395 HC3   -16.470071    9.905859   10.888949 H    1015 MOH     0.0372 ****
6396 O1    -16.101722    8.587217   12.447413 O    1015 MOH    -0.6497 ****
6397 HO1   -16.319383    7.692745   12.719649 H    1015 MOH     0.4215 ****
6398 HC1   -25.759060    6.481472    4.467005 H    1016 MOH     0.0372 ****
6399 C1    -26.551184    5.949117    4.993093 C    1016 MOH     0.1166 ****
6400 HC2   -26.524049    6.206721    6.051632 H    1016 MOH     0.0372 ****
6401 HC3   -26.385485    4.881547    4.850964 H    1016 MOH     0.0372 ****
6402 O1    -27.779786    6.364713    4.437307 O    1016 MOH    -0.6497 ****
6403 HO1   -28.474338    6.005863    4.995214 H    1016 MOH     0.4215 ****
6404 HC1   -25.062775   14.372504    3.347655 H    1017 MOH     0.0372 ****
6405 C1    -24.525262   14.715024    2.463065 C    1017 MOH     0.1166 ****
6406 HC2   -24.853197   14.141027    1.596152 H    1017 MOH     0.0372 ****
6407 HC3   -23.465824   14.530496    2.641256 H    1017 MOH     0.0372 ****
6408 O1    -24.785647   16.095720    2.194364 O    1017 MOH    -0.6497 ****
6409 HO1   -24.526417   16.300660    1.293510 H    1017 MOH     0.4215 ****
6410 HC1   -21.693936   12.540285   11.989914 H    1018 MOH     0.0372 ****
6411 C1    -21.645439   11.452712   11.939003 C    1018 MOH     0.1166 ****
6412 HC2   -22.023603   11.097944   10.980873 H    1018 MOH     0.0372 ****
6413 HC3   -22.252234   11.006088   12.726720 H    1018 MOH     0.0372 ****
6414 O1    -20.308873   11.018336   12.012542 O    1018 MOH    -0.6497 ****
6415 HO1   -20.341205   10.058952   12.033755 H    1018 MOH     0.4215 ****
6416 HC1   -22.497031    6.958715    4.911776 H    1019 MOH     0.0372 ****
6417 C1    -22.298422    7.919323    5.386244 C    1019 MOH     0.1166 ****
6418 HC2   -21.233788    8.136511    5.302806 H    1019 MOH     0.0372 ****
6419 HC3   -22.527630    7.884214    6.451147 H    1019 MOH     0.0372 ****
6420 O1    -23.091701    8.915040    4.734999 O    1019 MOH    -0.6497 ****
6421 HO1   -23.044359    9.691120    5.298563 H    1019 MOH     0.4215 ****
6422 HC1   -23.655773    1.491454    9.923748 H    1020 MOH     0.0372 ****
6423 C1    -23.608430    2.214870   10.738335 C    1020 MOH     0.1166 ****
6424 HC2   -24.401709    2.942368   10.567216 H    1020 MOH     0.0372 ****
6425 HC3   -22.647719    2.728446   10.691666 H    1020 MOH     0.0372 ****
6426 O1    -23.793759    1.573103   12.032341 O    1020 MOH    -0.6497 ****
6427 HO1   -23.985440    2.248754   12.687829 H    1020 MOH     0.4215 ****
6428 HC1   -16.897888   10.205922   14.242757 H    1021 MOH     0.0372 ****
6429 C1    -16.815327   11.145709   14.788643 C    1021 MOH     0.1166 ****
6430 HC2   -17.642092   11.801356   14.515700 H    1021 MOH     0.0372 ****
6431 HC3   -15.858080   11.607846   14.543984 H    1021 MOH     0.0372 ****
6432 O1    -16.856319   10.787675   16.130025 O    1021 MOH    -0.6497 ****
6433 HO1   -16.632307   11.530687   16.694296 H    1021 MOH     0.4215 ****
6434 HC1   -22.110206   -1.171550   10.528325 H    1022 MOH     0.0372 ****
6435 C1    -22.790325   -1.740240   11.162600 C    1022 MOH     0.1166 ****
6436 HC2   -22.435832   -1.703089   12.192854 H    1022 MOH     0.0372 ****
6437 HC3   -22.845173   -2.776782   10.830967 H    1022 MOH     0.0372 ****
6438 O1    -24.022967   -1.117253   11.080575 O    1022 MOH    -0.6497 ****
6439 HO1   -23.920776   -0.224414   11.416451 H    1022 MOH     0.4215 ****
6440 HC1   -28.242243    5.291837   15.512013 H    1023 MOH     0.0372 ****
6441 C1    -28.382539    5.137519   14.442868 C    1023 MOH     0.1166 ****
6442 HC2   -28.578838    6.092004   13.953550 H    1023 MOH     0.0372 ****
6443 HC3   -29.216811    4.458602   14.266798 H    1023 MOH     0.0372 ****
6444 O1    -27.207054    4.583118   13.891325 O    1023 MOH    -0.6497 ****
6445 HO1   -26.560422    4.482281   14.593482 H    1023 MOH     0.4215 ****
6446 HC1   -25.479045   13.328205   16.802483 H    1024 MOH     0.0372 ****
6447 C1    -24.996380   12.362289   16.655405 C    1024 MOH     0.1166 ****
6448 HC2   -25.769452   11.608254   16.507620 H    1024 MOH     0.0372 ****
6449 HC3   -24.431732   12.119790   17.554845 H    1024 MOH     0.0372 ****
6450 O1    -24.088208   12.390050   15.532519 O    1024 MOH    -0.6497 ****
6451 HO1   -23.376913   12.994257   15.761622 H    1024 MOH     0.4215 ****
6452 HC1   -21.780539   -0.797186   15.757379 H    1025 MOH     0.0372 ****
6453 C1    -21.946816   -0.710229   16.831475 C    1025 MOH     0.1166 ****
6454 HC2   -21.874647    0.345909   17.090983 H    1025 MOH     0.0372 ****
6455 HC3   -21.159888   -1.264222   17.344127 H    1025 MOH     0.0372 ****
6456 O1    -23.272412   -1.229113   17.065527 O    1025 MOH    -0.6497 ****
6457 HO1   -23.583604   -0.880469   17.904156 H    1025 MOH     0.4215 ****
6458 HC1   -22.186994    5.340827   14.575804 H    1026 MOH     0.0372 ****
6459 C1    -22.203737    4.333678   14.157904 C    1026 MOH     0.1166 ****
6460 HC2   -21.702019    3.675174   14.865718 H    1026 MOH     0.0372 ****
6461 HC3   -21.652367    4.305101   13.217452 H    1026 MOH     0.0372 ****
6462 O1    -23.546654    3.898077   14.008704 O    1026 MOH    -0.6497 ****
6463 HO1   -24.038556    4.158948   14.791472 H    1026 MOH     0.4215 ****
6464 HC1   -24.339355   12.059369   10.910869 H    1027 MOH     0.0372 ****
6465 C1    -24.743501   12.405155    9.959811 C    1027 MOH     0.1166 ****
6466 HC2   -25.676499   11.881781    9.747679 H    1027 MOH     0.0372 ****
6467 HC3   -24.022390   12.260227    9.155830 H    1027 MOH     0.0372 ****
6468 O1    -24.990029   13.771154   10.113960 O    1027 MOH    -0.6497 ****
6469 HO1   -24.165573   14.226759   10.302051 H    1027 MOH     0.4215 ****
6470 HC1   -27.387188    4.378586   17.533632 H    1028 MOH     0.0372 ****
6471 C1    -26.633168    3.624959   17.305943 C    1028 MOH     0.1166 ****
6472 HC2   -27.119297    2.735386   16.906428 H    1028 MOH     0.0372 ****
6473 HC3   -26.144152    3.335511   18.235789 H    1028 MOH     0.0372 ****
6474 O1    -25.699015    4.167113   16.361249 O    1028 MOH    -0.6497 ****
6475 HO1   -25.482509    5.064851   16.620757 H    1028 MOH     0.4215 ****
6476 HC1   -22.099814   13.946701    9.244219 H    1029 MOH     0.0372 ****
6477 C1    -21.679503   14.830150    9.725051 C    1029 MOH     0.1166 ****
6478 HC2   -21.426046   15.571937    8.967740 H    1029 MOH     0.0372 ****
6479 HC3   -20.792693   14.547234   10.291444 H    1029 MOH     0.0372 ****
6480 O1    -22.684670   15.326580   10.548124 O    1029 MOH    -0.6497 ****
6481 HO1   -22.328444   15.522947   11.417158 H    1029 MOH     0.4215 ****
6482 HC1   -22.640214    4.408388   22.348322 H    1030 MOH     0.0372 ****
6483 C1    -22.565158    5.450237   22.038609 C    1030 MOH     0.1166 ****
6484 HC2   -21.526505    5.674774   21.795364 H    1030 MOH     0.0372 ****
6485 HC3   -22.927157    6.051587   22.873702 H    1030 MOH     0.0372 ****
6486 O1    -23.453123    5.607821   20.962392 O    1030 MOH    -0.6497 ****
6487 HO1   -23.085928    5.087305   20.244679 H    1030 MOH     0.4215 ****
6488 HC1   -24.017771   12.881581    6.369830 H    1031 MOH     0.0372 ****
6489 C1    -23.274144   12.360656    5.767375 C    1031 MOH     0.1166 ****
6490 HC2   -22.358467   12.950167    5.719291 H    1031 MOH     0.0372 ****
6491 HC3   -23.610162   12.239406    4.737120 H    1031 MOH     0.0372 ****
6492 O1    -22.935817   11.131829    6.351445 O    1031 MOH    -0.6497 ****
6493 HO1   -23.639607   10.860344    6.944708 H    1031 MOH     0.4215 ****
6494 HC1   -23.301857    7.204480   11.029663 H    1032 MOH     0.0372 ****
6495 C1    -23.341117    6.134870   10.824602 C    1032 MOH     0.1166 ****
6496 HC2   -24.119385    5.706617   11.456049 H    1032 MOH     0.0372 ****
6497 HC3   -22.372323    5.698452   11.068554 H    1032 MOH     0.0372 ****
6498 O1    -23.629792    5.842972    9.456351 O    1032 MOH    -0.6497 ****
6499 HO1   -23.200243    5.028517    9.184115 H    1032 MOH     0.4215 ****
6500 HC1   -19.140316    5.884613    8.783185 H    1033 MOH     0.0372 ****
6501 C1    -19.662818    6.813787    9.010874 C    1033 MOH     0.1166 ****
6502 HC2   -20.695120    6.600681    9.289474 H    1033 MOH     0.0372 ****
6503 HC3   -19.622404    7.460044    8.134768 H    1033 MOH     0.0372 ****
6504 O1    -18.975194    7.377169   10.077191 O    1033 MOH    -0.6497 ****
6505 HO1   -18.512736    6.661918   10.519839 H    1033 MOH     0.4215 ****
6506 HC1   -25.740007    1.098719   18.423172 H    1034 MOH     0.0372 ****
6507 C1    -25.488860    0.578202   19.347361 C    1034 MOH     0.1166 ****
6508 HC2   -26.155699   -0.275445   19.468276 H    1034 MOH     0.0372 ****
6509 HC3   -25.611835    1.248138   20.198010 H    1034 MOH     0.0372 ****
6510 O1    -24.148830    0.147500   19.250487 O    1034 MOH    -0.6497 ****
6511 HO1   -23.958882   -0.408126   20.009212 H    1034 MOH     0.4215 ****
6512 HC1   -24.267187    8.029142    8.402055 H    1035 MOH     0.0372 ****
6513 C1    -25.204226    8.285113    7.909201 C    1035 MOH     0.1166 ****
6514 HC2   -26.042539    7.953207    8.522263 H    1035 MOH     0.0372 ****
6515 HC3   -25.222701    7.786234    6.940465 H    1035 MOH     0.0372 ****
6516 O1    -25.234826    9.668667    7.692119 O    1035 MOH    -0.6497 ****
6517 HO1   -26.151081    9.909942    7.540091 H    1035 MOH     0.4215 ****
6518 HC1   -27.596766    3.319181    6.694392 H    1036 MOH     0.0372 ****
6519 C1    -27.291347    2.338977    6.327403 C    1036 MOH     0.1166 ****
6520 HC2   -26.342183    2.418585    5.797780 H    1036 MOH     0.0372 ****
6521 HC3   -28.058068    1.946650    5.660602 H    1036 MOH     0.0372 ****
6522 O1    -27.137772    1.418377    7.401499 O    1036 MOH    -0.6497 ****
6523 HO1   -26.288490    0.984409    7.293311 H    1036 MOH     0.4215 ****
6524 HC1   -21.755713    0.670875   13.367359 H    1037 MOH     0.0372 ****
6525 C1    -20.884491    1.174245   12.948044 C    1037 MOH     0.1166 ****
6526 HC2   -21.182404    2.123422   12.504688 H    1037 MOH     0.0372 ****
6527 HC3   -20.445705    0.562689   12.158913 H    1037 MOH     0.0372 ****
6528 O1    -19.915698    1.449404   13.933751 O    1037 MOH    -0.6497 ****
6529 HO1   -19.485572    0.611270   14.116892 H    1037 MOH     0.4215 ****
6530 HC1   -26.203042   16.250446   11.640604 H    1038 MOH     0.0372 ****
6531 C1    -27.218024   15.867101   11.536659 C    1038 MOH     0.1166 ****
6532 HC2   -27.939134   16.684414   11.557872 H    1038 MOH     0.0372 ****
6533 HC3   -27.453005   15.172262   12.342761 H    1038 MOH     0.0372 ****
6534 O1    -27.345618   15.155116   10.354376 O    1038 MOH    -0.6497 ****
6535 HO1   -26.625085   14.521922   10.322557 H    1038 MOH     0.4215 ****
6536 HC1   -26.669541    1.916440   11.713436 H    1039 MOH     0.0372 ****
6537 C1    -27.167794    1.140768   11.133608 C    1039 MOH     0.1166 ****
6538 HC2   -26.440910    0.395307   10.811167 H    1039 MOH     0.0372 ****
6539 HC3   -27.630252    1.614745   10.267402 H    1039 MOH     0.0372 ****
6540 O1    -28.142939    0.510025   11.930517 O    1039 MOH    -0.6497 ****
6541 HO1   -27.671244    0.140968   12.680051 H    1039 MOH     0.4215 ****
6542 HC1   -23.328993    7.968313   18.900469 H    1040 MOH     0.0372 ****
6543 C1    -23.951376    8.862785   18.891277 C    1040 MOH     0.1166 ****
6544 HC2   -23.507394    9.649887   19.500803 H    1040 MOH     0.0372 ****
6545 HC3   -24.923057    8.584768   19.300691 H    1040 MOH     0.0372 ****
6546 O1    -24.130932    9.315532   17.569694 O    1040 MOH    -0.6497 ****
6547 HO1   -23.273567    9.591100   17.236647 H    1040 MOH     0.4215 ****
6548 HC1   -27.345041   13.615203    7.419883 H    1041 MOH     0.0372 ****
6549 C1    -26.752102   13.276765    6.570648 C    1041 MOH     0.1166 ****
6550 HC2   -26.384907   12.281048    6.818842 H    1041 MOH     0.0372 ****
6551 HC3   -25.905129   13.946701    6.418620 H    1041 MOH     0.0372 ****
6552 O1    -27.556351   13.225734    5.400386 O    1041 MOH    -0.6497 ****
6553 HO1   -27.149319   12.575395    4.822680 H    1041 MOH     0.4215 ****
6554 HC1   -27.700111    8.147942   16.740965 H    1042 MOH     0.0372 ****
6555 C1    -27.246314    9.027309   17.197756 C    1042 MOH     0.1166 ****
6556 HC2   -26.409156    9.344109   16.575502 H    1042 MOH     0.0372 ****
6557 HC3   -26.942628    8.778277   18.214575 H    1042 MOH     0.0372 ****
6558 O1    -28.196633   10.025068   17.162400 O    1042 MOH    -0.6497 ****
6559 HO1   -28.524568   10.080589   16.261546 H    1042 MOH     0.4215 ****
6560 HC1   -20.337163   11.467001   22.117805 H    1043 MOH     0.0372 ****
6561 C1    -20.590043   12.331670   22.731574 C    1043 MOH     0.1166 ****
6562 HC2   -19.782330   12.514974   23.439387 H    1043 MOH     0.0372 ****
6563 HC3   -21.508030   12.098969   23.270389 H    1043 MOH     0.0372 ****
6564 O1    -20.782300   13.440065   21.875267 O    1043 MOH    -0.6497 ****
6565 HO1   -21.467615   13.168988   21.260084 H    1043 MOH     0.4215 ****
6566 HC1   -24.077816    4.207529   18.583685 H    1044 MOH     0.0372 ****
6567 C1    -23.255092    3.516773   18.398423 C    1044 MOH     0.1166 ****
6568 HC2   -22.979696    3.638023   17.351198 H    1044 MOH     0.0372 ****
6569 HC3   -23.563397    2.476965   18.505196 H    1044 MOH     0.0372 ****
6570 O1    -22.165054    3.827450   19.283014 O    1044 MOH    -0.6497 ****
6571 HO1   -21.554218    3.086888   19.295742 H    1044 MOH     0.4215 ****
6572 HC1   -28.330578    5.549033    9.388469 H    1045 MOH     0.0372 ****
6573 C1    -27.403353    5.372262    9.932234 C    1045 MOH     0.1166 ****
6574 HC2   -27.469171    4.447579   10.505697 H    1045 MOH     0.0372 ****
6575 HC3   -27.179919    6.208763   10.594793 H    1045 MOH     0.0372 ****
6576 O1    -26.399918    5.270200    9.001681 O    1045 MOH    -0.6497 ****
6577 HO1   -25.589896    5.611087    9.388469 H    1045 MOH     0.4215 ****
6578 HC1   -19.243662    5.165280   17.518782 H    1046 MOH     0.0372 ****
6579 C1    -20.075046    5.848688   17.349077 C    1046 MOH     0.1166 ****
6580 HC2   -20.997075    5.388592   17.706166 H    1046 MOH     0.0372 ****
6581 HC3   -20.145483    6.036890   16.277810 H    1046 MOH     0.0372 ****
6582 O1    -19.747111    7.069350   18.001029 O    1046 MOH    -0.6497 ****
6583 HO1   -19.133965    6.872166   18.713086 H    1046 MOH     0.4215 ****
6584 HC1   -19.483840    7.991583   13.541307 H    1047 MOH     0.0372 ****
6585 C1    -20.493625    7.670700   13.285334 C    1047 MOH     0.1166 ****
6586 HC2   -21.191064    8.101402   14.004462 H    1047 MOH     0.0372 ****
6587 HC3   -20.575032    6.584351   13.319982 H    1047 MOH     0.0372 ****
6588 O1    -20.848696    8.129979   12.013249 O    1047 MOH    -0.6497 ****
6589 HO1   -20.249983    7.722547   11.383924 H    1047 MOH     0.4215 ****
6590 HC1   -25.993464   -4.794345   15.956076 H    1048 MOH     0.0372 ****
6591 C1    -25.412072   -4.037045   16.482871 C    1048 MOH     0.1166 ****
6592 HC2   -24.358408   -4.281177   16.345692 H    1048 MOH     0.0372 ****
6593 HC3   -25.641858   -4.026430   17.547774 H    1048 MOH     0.0372 ****
6594 O1    -25.540244   -2.776782   15.930621 O    1048 MOH    -0.6497 ****
6595 HO1   -24.741769   -2.300357   16.171744 H    1048 MOH     0.4215 ****
6596 HC1   -23.680599   15.100002   14.815513 H    1049 MOH     0.0372 ****
6597 C1    -24.173079   15.536420   13.946479 C    1049 MOH     0.1166 ****
6598 HC2   -25.115314   16.023868   14.196795 H    1049 MOH     0.0372 ****
6599 HC3   -24.425381   14.701960   13.291698 H    1049 MOH     0.0372 ****
6600 O1    -23.335343   16.461510   13.246443 O    1049 MOH    -0.6497 ****
6601 HO1   -23.876321   17.161248   12.874505 H    1049 MOH     0.4215 ****
6602 HC1   -25.772916   -5.116862   11.293414 H    1050 MOH     0.0372 ****
6603 C1    -25.805825   -4.031738   11.194419 C    1050 MOH     0.1166 ****
6604 HC2   -25.360688   -3.562660   12.071939 H    1050 MOH     0.0372 ****
6605 HC3   -26.843324   -3.705955   11.119466 H    1050 MOH     0.0372 ****
6606 O1    -25.119933   -3.654516   10.029107 O    1050 MOH    -0.6497 ****
6607 HO1   -25.018319   -2.701256   10.069412 H    1050 MOH     0.4215 ****
6608 HC1   -17.339561    3.700077   12.476404 H    1051 MOH     0.0372 ****
6609 C1    -18.245423    4.024634   11.965166 C    1051 MOH     0.1166 ****
6610 HC2   -19.131079    3.631899   12.464383 H    1051 MOH     0.0372 ****
6611 HC3   -18.237918    3.676398   10.932083 H    1051 MOH     0.0372 ****
6612 O1    -18.338377    5.416761   11.979308 O    1051 MOH    -0.6497 ****
6613 HO1   -18.068177    5.702126   12.855413 H    1051 MOH     0.4215 ****
6614 HC1   -24.805277    8.263884   14.461253 H    1052 MOH     0.0372 ****
6615 C1    -24.141902    7.442081   14.730660 C    1052 MOH     0.1166 ****
6616 HC2   -23.125765    7.828284   14.808442 H    1052 MOH     0.0372 ****
6617 HC3   -24.155758    6.659469   13.971935 H    1052 MOH     0.0372 ****
6618 O1    -24.520066    7.015053   16.017595 O    1052 MOH    -0.6497 ****
6619 HO1   -24.466373    7.784193   16.588937 H    1052 MOH     0.4215 ****
6620 HC1   -21.025365   14.463135   18.564593 H    1053 MOH     0.0372 ****
6621 C1    -21.364847   13.717265   17.845466 C    1053 MOH     0.1166 ****
6622 HC2   -21.871183   12.879948   18.327005 H    1053 MOH     0.0372 ****
6623 HC3   -20.478037   13.320448   17.350491 H    1053 MOH     0.0372 ****
6624 O1    -22.206046   14.337803   16.890872 O    1053 MOH    -0.6497 ****
6625 HO1   -21.676616   15.022843   16.475093 H    1053 MOH     0.4215 ****
6626 HC1   -27.656810   11.959348   12.727427 H    1054 MOH     0.0372 ****
6627 C1    -27.000363   12.234916   13.552620 C    1054 MOH     0.1166 ****
6628 HC2   -27.547114   12.198990   14.495901 H    1054 MOH     0.0372 ****
6629 HC3   -26.653953   13.257578   13.402007 H    1054 MOH     0.0372 ****
6630 O1    -25.881458   11.362897   13.617674 O    1054 MOH    -0.6497 ****
6631 HO1   -25.276395   11.689496   14.288011 H    1054 MOH     0.4215 ****
6632 HC1   -17.739665    2.594132   16.913499 H    1055 MOH     0.0372 ****
6633 C1    -17.355727    3.190991   16.086184 C    1055 MOH     0.1166 ****
6634 HC2   -16.668102    2.573720   15.507771 H    1055 MOH     0.0372 ****
6635 HC3   -16.854587    4.052803   16.528126 H    1055 MOH     0.0372 ****
6636 O1    -18.420938    3.630675   15.299174 O    1055 MOH    -0.6497 ****
6637 HO1   -18.950368    2.874599   15.037545 H    1055 MOH     0.4215 ****
6638 HC1   -17.847629    8.050779   15.649192 H    1056 MOH     0.0372 ****
6639 C1    -17.207348    7.175495   15.758087 C    1056 MOH     0.1166 ****
6640 HC2   -17.357459    6.774595   16.760764 H    1056 MOH     0.0372 ****
6641 HC3   -16.168694    7.488213   15.652021 H    1056 MOH     0.0372 ****
6642 O1    -17.586667    6.233666   14.754702 O    1056 MOH    -0.6497 ****
6643 HO1   -17.657681    5.360423   15.147146 H    1056 MOH     0.4215 ****
6644 HC1   -19.711893   10.264301   20.070024 H    1057 MOH     0.0372 ****
6645 C1    -18.853373   10.626009   19.504338 C    1057 MOH     0.1166 ****
6646 HC2   -19.201515   11.145301   18.611969 H    1057 MOH     0.0372 ****
6647 HC3   -18.224061    9.785426   19.210889 H    1057 MOH     0.0372 ****
6648 O1    -18.103973   11.515582   20.299833 O    1057 MOH    -0.6497 ****
6649 HO1   -17.936541   11.097128   21.147654 H    1057 MOH     0.4215 ****
6650 HC1   -18.912840   11.585393   10.138002 H    1058 MOH     0.0372 ****
6651 C1    -19.359709   11.999356    9.234319 C    1058 MOH     0.1166 ****
6652 HC2   -20.387393   12.318198    9.406146 H    1058 MOH     0.0372 ****
6653 HC3   -19.329110   11.226951    8.464987 H    1058 MOH     0.0372 ****
6654 O1    -18.549110   13.063660    8.846118 O    1058 MOH    -0.6497 ****
6655 HO1   -18.367244   13.609896    9.614036 H    1058 MOH     0.4215 ****
6656 HC1   -25.686891    9.333087    4.732170 H    1059 MOH     0.0372 ****
6657 C1    -26.611229    9.848296    4.470541 C    1059 MOH     0.1166 ****
6658 HC2   -27.324256    9.801347    5.294320 H    1059 MOH     0.0372 ****
6659 HC3   -27.047128    9.402081    3.577465 H    1059 MOH     0.0372 ****
6660 O1    -26.373360   11.197557    4.191234 O    1059 MOH    -0.6497 ****
6661 HO1   -25.868756   11.227767    3.375232 H    1059 MOH     0.4215 ****
6662 HC1   -26.039075   -6.670246   14.456303 H    1060 MOH     0.0372 ****
6663 C1    -25.201339   -6.442035   13.796572 C    1060 MOH     0.1166 ****
6664 HC2   -24.843960   -5.440602   14.032039 H    1060 MOH     0.0372 ****
6665 HC3   -25.551791   -6.486943   12.765611 H    1060 MOH     0.0372 ****
6666 O1    -24.120540   -7.383864   14.000926 O    1060 MOH    -0.6497 ****
6667 HO1   -23.287423   -6.995620   13.723033 H    1060 MOH     0.4215 ****
6668 HC1   -26.814456    8.001789   11.987793 H    1061 MOH     0.0372 ****
6669 C1    -26.032724    8.674990   11.636361 C    1061 MOH     0.1166 ****
6670 HC2   -25.473271    8.240206   10.808339 H    1061 MOH     0.0372 ****
6671 HC3   -25.347409    8.879931   12.458019 H    1061 MOH     0.0372 ****
6672 O1    -26.606610    9.874424   11.190884 O    1061 MOH    -0.6497 ****
6673 HO1   -26.411466   10.517823   11.876777 H    1061 MOH     0.4215 ****
6674 HC1    -9.048349   26.189904   15.076436 H    1062 MOH     0.0372 ****
6675 C1     -8.614759   26.383005   16.057193 C    1062 MOH     0.1166 ****
6676 HC2    -8.328971   27.433836   16.108104 H    1062 MOH     0.0372 ****
6677 HC3    -7.726794   25.763692   16.183765 H    1062 MOH     0.0372 ****
6678 O1     -9.569119   26.068246   17.064820 O    1062 MOH    -0.6497 ****
6679 HO1    -9.368201   25.176631   17.357562 H    1062 MOH     0.4215 ****
6680 HC1   -15.685568   15.336215    7.443925 H    1063 MOH     0.0372 ****
6681 C1    -15.872629   14.350295    7.868896 C    1063 MOH     0.1166 ****
6682 HC2   -16.264650   14.445008    8.881473 H    1063 MOH     0.0372 ****
6683 HC3   -14.915382   13.833861    7.937486 H    1063 MOH     0.0372 ****
6684 O1    -16.713828   13.546454    7.019661 O    1063 MOH    -0.6497 ****
6685 HO1   -17.429743   13.200259    7.557062 H    1063 MOH     0.4215 ****
6686 HC1   -13.055160   15.808150   14.080829 H    1064 MOH     0.0372 ****
6687 C1    -13.903865   16.242934   14.609038 C    1064 MOH     0.1166 ****
6688 HC2   -14.040119   17.270087   14.271041 H    1064 MOH     0.0372 ****
6689 HC3   -13.739320   16.230687   15.686669 H    1064 MOH     0.0372 ****
6690 O1    -15.069535   15.544829   14.275284 O    1064 MOH    -0.6497 ****
6691 HO1   -15.042400   14.744255   14.804907 H    1064 MOH     0.4215 ****
6692 HC1    -4.978607   24.578548   10.461150 H    1065 MOH     0.0372 ****
6693 C1     -5.173174   25.319926   11.236139 C    1065 MOH     0.1166 ****
6694 HC2    -6.237231   25.361976   11.468777 H    1065 MOH     0.0372 ****
6695 HC3    -4.871797   26.308296   10.888949 H    1065 MOH     0.0372 ****
6696 O1     -4.503448   24.989654   12.447413 O    1065 MOH    -0.6497 ****
6697 HO1    -4.721109   24.095182   12.719649 H    1065 MOH     0.4215 ****
6698 HC1   -14.160786   22.883909    4.467005 H    1066 MOH     0.0372 ****
6699 C1    -14.952910   22.351553    4.993093 C    1066 MOH     0.1166 ****
6700 HC2   -14.925775   22.609158    6.051632 H    1066 MOH     0.0372 ****
6701 HC3   -14.787211   21.283984    4.850964 H    1066 MOH     0.0372 ****
6702 O1    -16.181512   22.767150    4.437307 O    1066 MOH    -0.6497 ****
6703 HO1   -16.876064   22.408300    4.995214 H    1066 MOH     0.4215 ****
6704 HC1   -10.898757   23.361151    4.911776 H    1067 MOH     0.0372 ****
6705 C1    -10.700148   24.321759    5.386244 C    1067 MOH     0.1166 ****
6706 HC2    -9.635514   24.538947    5.302806 H    1067 MOH     0.0372 ****
6707 HC3   -10.929356   24.286650    6.451147 H    1067 MOH     0.0372 ****
6708 O1    -11.493427   25.317477    4.734999 O    1067 MOH    -0.6497 ****
6709 HO1   -11.446085   26.093557    5.298563 H    1067 MOH     0.4215 ****
6710 HC1   -12.057499   17.893890    9.923748 H    1068 MOH     0.0372 ****
6711 C1    -12.010156   18.617306   10.738335 C    1068 MOH     0.1166 ****
6712 HC2   -12.803435   19.344804   10.567216 H    1068 MOH     0.0372 ****
6713 HC3   -11.049445   19.130882   10.691666 H    1068 MOH     0.0372 ****
6714 O1    -12.195485   17.975540   12.032341 O    1068 MOH    -0.6497 ****
6715 HO1   -12.387166   18.651191   12.687829 H    1068 MOH     0.4215 ****
6716 HC1    -5.299614   26.608358   14.242757 H    1069 MOH     0.0372 ****
6717 C1     -5.217053   27.548146   14.788643 C    1069 MOH     0.1166 ****
6718 HC2    -6.043818   28.203792   14.515700 H    1069 MOH     0.0372 ****
6719 HC3    -4.259806   28.010283   14.543984 H    1069 MOH     0.0372 ****
6720 O1     -5.258045   27.190112   16.130025 O    1069 MOH    -0.6497 ****
6721 HO1    -5.034033   27.933124   16.694296 H    1069 MOH     0.4215 ****
6722 HC1   -26.625201   17.074127    4.579435 H    1070 MOH     0.0372 ****
6723 C1    -26.212395   18.081684    4.542666 C    1070 MOH     0.1166 ****
6724 HC2   -26.297843   18.552395    5.522009 H    1070 MOH     0.0372 ****
6725 HC3   -26.789168   18.669562    3.828488 H    1070 MOH     0.0372 ****
6726 O1    -24.872942   18.026162    4.111331 O    1070 MOH    -0.6497 ****
6727 HO1   -24.839456   17.365617    3.415538 H    1070 MOH     0.4215 ****
6728 HC1   -10.511932   15.230886   10.528325 H    1071 MOH     0.0372 ****
6729 C1    -11.192051   14.662197   11.162600 C    1071 MOH     0.1166 ****
6730 HC2   -10.837557   14.699347   12.192854 H    1071 MOH     0.0372 ****
6731 HC3   -11.246899   13.625654   10.830967 H    1071 MOH     0.0372 ****
6732 O1    -12.424693   15.285183   11.080575 O    1071 MOH    -0.6497 ****
6733 HO1   -12.322502   16.178023   11.416451 H    1071 MOH     0.4215 ****
6734 HC1   -16.643969   21.694273   15.512013 H    1072 MOH     0.0372 ****
6735 C1    -16.784265   21.539956   14.442868 C    1072 MOH     0.1166 ****
6736 HC2   -16.980564   22.494440   13.953550 H    1072 MOH     0.0372 ****
6737 HC3   -17.618536   20.861039   14.266798 H    1072 MOH     0.0372 ****
6738 O1    -15.608780   20.985554   13.891325 O    1072 MOH    -0.6497 ****
6739 HO1   -14.962148   20.884717   14.593482 H    1072 MOH     0.4215 ****
6740 HC1   -19.187774   21.488108    8.143253 H    1073 MOH     0.0372 ****
6741 C1    -19.348855   20.475244    8.511656 C    1073 MOH     0.1166 ****
6742 HC2   -20.099988   20.520151    9.299373 H    1073 MOH     0.0372 ****
6743 HC3   -18.423940   20.074752    8.926728 H    1073 MOH     0.0372 ****
6744 O1    -19.800343   19.628537    7.455239 O    1073 MOH    -0.6497 ****
6745 HO1   -19.395620   18.770399    7.605145 H    1073 MOH     0.4215 ****
6746 HC1   -10.182265   15.605250   15.757379 H    1074 MOH     0.0372 ****
6747 C1    -10.348542   15.692207   16.831475 C    1074 MOH     0.1166 ****
6748 HC2   -10.276373   16.748345   17.090983 H    1074 MOH     0.0372 ****
6749 HC3    -9.561613   15.138214   17.344127 H    1074 MOH     0.0372 ****
6750 O1    -11.674138   15.173324   17.065527 O    1074 MOH    -0.6497 ****
6751 HO1   -11.985330   15.521968   17.904156 H    1074 MOH     0.4215 ****
6752 HC1   -10.588720   21.743263   14.575804 H    1075 MOH     0.0372 ****
6753 C1    -10.605463   20.736115   14.157904 C    1075 MOH     0.1166 ****
6754 HC2   -10.103745   20.077610   14.865718 H    1075 MOH     0.0372 ****
6755 HC3   -10.054093   20.707537   13.217452 H    1075 MOH     0.0372 ****
6756 O1    -11.948379   20.300514   14.008704 O    1075 MOH    -0.6497 ****
6757 HO1   -12.440282   20.561384   14.791472 H    1075 MOH     0.4215 ****
6758 HC1   -16.973636   17.205992   16.114468 H    1076 MOH     0.0372 ****
6759 C1    -17.159543   17.791828   15.214321 C    1076 MOH     0.1166 ****
6760 HC2   -17.141645   17.168025   14.320538 H    1076 MOH     0.0372 ****
6761 HC3   -16.411874   18.577298   15.105427 H    1076 MOH     0.0372 ****
6762 O1    -18.402001   18.380114   15.343722 O    1076 MOH    -0.6497 ****
6763 HO1   -18.700491   18.490749   14.437918 H    1076 MOH     0.4215 ****
6764 HC1   -15.788913   20.781022   17.533632 H    1077 MOH     0.0372 ****
6765 C1    -15.034894   20.027396   17.305943 C    1077 MOH     0.1166 ****
6766 HC2   -15.521023   19.137823   16.906428 H    1077 MOH     0.0372 ****
6767 HC3   -14.545878   19.737948   18.235789 H    1077 MOH     0.0372 ****
6768 O1    -14.100741   20.569549   16.361249 O    1077 MOH    -0.6497 ****
6769 HO1   -13.884235   21.467287   16.620757 H    1077 MOH     0.4215 ****
6770 HC1   -19.852305   14.151478   14.799250 H    1078 MOH     0.0372 ****
6771 C1    -20.259337   15.152095   14.654293 C    1078 MOH     0.1166 ****
6772 HC2   -21.304918   15.106371   14.348823 H    1078 MOH     0.0372 ****
6773 HC3   -19.702771   15.609741   13.837584 H    1078 MOH     0.0372 ****
6774 O1    -20.104607   15.975940   15.811119 O    1078 MOH    -0.6497 ****
6775 HO1   -19.821705   16.856123   15.550904 H    1078 MOH     0.4215 ****
6776 HC1   -20.446398   18.556885   17.021686 H    1079 MOH     0.0372 ****
6777 C1    -20.358063   19.542805   17.477770 C    1079 MOH     0.1166 ****
6778 HC2   -20.959085   19.574648   18.385695 H    1079 MOH     0.0372 ****
6779 HC3   -20.710247   20.278060   16.754400 H    1079 MOH     0.0372 ****
6780 O1    -19.018034   19.746521   17.785362 O    1079 MOH    -0.6497 ****
6781 HO1   -18.533059   19.279893   17.101589 H    1079 MOH     0.4215 ****
6782 HC1   -18.482830   13.719551   17.835566 H    1080 MOH     0.0372 ****
6783 C1    -17.406649   13.727716   17.665861 C    1080 MOH     0.1166 ****
6784 HC2   -16.986338   14.587895   18.185584 H    1080 MOH     0.0372 ****
6785 HC3   -17.202844   13.788137   16.596715 H    1080 MOH     0.0372 ****
6786 O1    -16.813133   12.582988   18.166492 O    1080 MOH    -0.6497 ****
6787 HO1   -17.275013   12.321709   18.965523 H    1080 MOH     0.4215 ****
6788 HC1   -11.041940   20.810824   22.348322 H    1081 MOH     0.0372 ****
6789 C1    -10.966884   21.852674   22.038609 C    1081 MOH     0.1166 ****
6790 HC2    -9.928231   22.077210   21.795364 H    1081 MOH     0.0372 ****
6791 HC3   -11.328883   22.454024   22.873702 H    1081 MOH     0.0372 ****
6792 O1    -11.854849   22.010258   20.962392 O    1081 MOH    -0.6497 ****
6793 HO1   -11.487654   21.489741   20.244679 H    1081 MOH     0.4215 ****
6794 HC1   -25.970485   21.189270    6.802579 H    1082 MOH     0.0372 ****
6795 C1    -25.182402   21.223563    6.050217 C    1082 MOH     0.1166 ****
6796 HC2   -25.602713   21.615073    5.123200 H    1082 MOH     0.0372 ****
6797 HC3   -24.784608   20.225804    5.863541 H    1082 MOH     0.0372 ****
6798 O1    -24.176081   22.123751    6.400235 O    1082 MOH    -0.6497 ****
6799 HO1   -23.348738   21.658756    6.256693 H    1082 MOH     0.4215 ****
6800 HC1   -22.766769   20.568733    4.084461 H    1083 MOH     0.0372 ****
6801 C1    -22.336643   19.998818    4.908947 C    1083 MOH     0.1166 ****
6802 HC2   -21.561261   19.355011    4.493875 H    1083 MOH     0.0372 ****
6803 HC3   -23.082002   19.350112    5.369274 H    1083 MOH     0.0372 ****
6804 O1    -21.767375   20.893290    5.848692 O    1083 MOH    -0.6497 ****
6805 HO1   -21.352838   20.353994    6.525393 H    1083 MOH     0.4215 ****
6806 HC1   -11.703583   23.606917   11.029663 H    1084 MOH     0.0372 ****
6807 C1    -11.742843   22.537306   10.824602 C    1084 MOH     0.1166 ****
6808 HC2   -12.521111   22.109054   11.456049 H    1084 MOH     0.0372 ****
6809 HC3   -10.774049   22.100889   11.068554 H    1084 MOH     0.0372 ****
6810 O1    -12.031518   22.245409    9.456351 O    1084 MOH    -0.6497 ****
6811 HO1   -11.601969   21.430953    9.184115 H    1084 MOH     0.4215 ****
6812 HC1    -7.542042   22.287050    8.783185 H    1085 MOH     0.0372 ****
6813 C1     -8.064544   23.216223    9.010874 C    1085 MOH     0.1166 ****
6814 HC2    -9.096846   23.003117    9.289474 H    1085 MOH     0.0372 ****
6815 HC3    -8.024130   23.862480    8.134768 H    1085 MOH     0.0372 ****
6816 O1     -7.376920   23.779606   10.077191 O    1085 MOH    -0.6497 ****
6817 HO1    -6.914462   23.064355   10.519839 H    1085 MOH     0.4215 ****
6818 HC1   -14.141733   17.501155   18.423172 H    1086 MOH     0.0372 ****
6819 C1    -13.890586   16.980639   19.347361 C    1086 MOH     0.1166 ****
6820 HC2   -14.557425   16.126992   19.468276 H    1086 MOH     0.0372 ****
6821 HC3   -14.013561   17.650574   20.198010 H    1086 MOH     0.0372 ****
6822 O1    -12.550556   16.549937   19.250487 O    1086 MOH    -0.6497 ****
6823 HO1   -12.360608   15.994311   20.009212 H    1086 MOH     0.4215 ****
6824 HC1   -15.998491   19.721618    6.694392 H    1087 MOH     0.0372 ****
6825 C1    -15.693073   18.741413    6.327403 C    1087 MOH     0.1166 ****
6826 HC2   -14.743909   18.821022    5.797780 H    1087 MOH     0.0372 ****
6827 HC3   -16.459794   18.349087    5.660602 H    1087 MOH     0.0372 ****
6828 O1    -15.539498   17.820814    7.401499 O    1087 MOH    -0.6497 ****
6829 HO1   -14.690216   17.386846    7.293311 H    1087 MOH     0.4215 ****
6830 HC1   -10.157439   17.073311   13.367359 H    1088 MOH     0.0372 ****
6831 C1     -9.286217   17.576681   12.948044 C    1088 MOH     0.1166 ****
6832 HC2    -9.584130   18.525858   12.504688 H    1088 MOH     0.0372 ****
6833 HC3    -8.847431   16.965125   12.158913 H    1088 MOH     0.0372 ****
6834 O1     -8.317424   17.851841   13.933751 O    1088 MOH    -0.6497 ****
6835 HO1    -7.887298   17.013707   14.116892 H    1088 MOH     0.4215 ****
6836 HC1   -18.712615   23.397077    1.619486 H    1089 MOH     0.0372 ****
6837 C1    -17.788855   23.585279    1.071479 C    1089 MOH     0.1166 ****
6838 HC2   -17.198225   22.670395    1.108955 H    1089 MOH     0.0372 ****
6839 HC3   -17.266353   24.408716    1.558675 H    1089 MOH     0.0372 ****
6840 O1    -18.061941   23.937598   -0.282631 O    1089 MOH    -0.6497 ****
6841 HO1   -17.280209   24.359726   -0.646084 H    1089 MOH     0.4215 ****
6842 HC1   -21.125939   18.658947   12.530144 H    1090 MOH     0.0372 ****
6843 C1    -20.269151   18.400934   11.906476 C    1090 MOH     0.1166 ****
6844 HC2   -20.083245   19.194161   11.183106 H    1090 MOH     0.0372 ****
6845 HC3   -20.515103   17.497073   11.349276 H    1090 MOH     0.0372 ****
6846 O1    -19.105791   18.210283   12.707628 O    1090 MOH    -0.6497 ****
6847 HO1   -18.409506   17.862455   12.146185 H    1090 MOH     0.4215 ****
6848 HC1   -15.071267   18.318877   11.713436 H    1091 MOH     0.0372 ****
6849 C1    -15.569520   17.543205   11.133608 C    1091 MOH     0.1166 ****
6850 HC2   -14.842636   16.797743   10.811167 H    1091 MOH     0.0372 ****
6851 HC3   -16.031978   18.017181   10.267402 H    1091 MOH     0.0372 ****
6852 O1    -16.544665   16.912461   11.930517 O    1091 MOH    -0.6497 ****
6853 HO1   -16.072970   16.543405   12.680051 H    1091 MOH     0.4215 ****
6854 HC1   -11.730718   24.370749   18.900469 H    1092 MOH     0.0372 ****
6855 C1    -12.353102   25.265221   18.891277 C    1092 MOH     0.1166 ****
6856 HC2   -11.909120   26.052324   19.500803 H    1092 MOH     0.0372 ****
6857 HC3   -13.324783   24.987204   19.300691 H    1092 MOH     0.0372 ****
6858 O1    -12.532658   25.717969   17.569694 O    1092 MOH    -0.6497 ****
6859 HO1   -11.675293   25.993536   17.236647 H    1092 MOH     0.4215 ****
6860 HC1   -12.479542   20.609966   18.583685 H    1093 MOH     0.0372 ****
6861 C1    -11.656818   19.919210   18.398423 C    1093 MOH     0.1166 ****
6862 HC2   -11.381421   20.040460   17.351198 H    1093 MOH     0.0372 ****
6863 HC3   -11.965123   18.879401   18.505196 H    1093 MOH     0.0372 ****
6864 O1    -10.566780   20.229887   19.283014 O    1093 MOH    -0.6497 ****
6865 HO1    -9.955944   19.489324   19.295742 H    1093 MOH     0.4215 ****
6866 HC1   -16.732304   21.951470    9.388469 H    1094 MOH     0.0372 ****
6867 C1    -15.805079   21.774698    9.932234 C    1094 MOH     0.1166 ****
6868 HC2   -15.870897   20.850016   10.505697 H    1094 MOH     0.0372 ****
6869 HC3   -15.581645   22.611199   10.594793 H    1094 MOH     0.0372 ****
6870 O1    -14.801644   21.672636    9.001681 O    1094 MOH    -0.6497 ****
6871 HO1   -13.991622   22.013524    9.388469 H    1094 MOH     0.4215 ****
6872 HC1   -18.829240   22.095581    4.115573 H    1095 MOH     0.0372 ****
6873 C1    -18.549225   21.187229    4.649439 C    1095 MOH     0.1166 ****
6874 HC2   -17.740935   20.691616    4.112038 H    1095 MOH     0.0372 ****
6875 HC3   -19.380032   20.481368    4.672773 H    1095 MOH     0.0372 ****
6876 O1    -18.111593   21.448508    5.968900 O    1095 MOH    -0.6497 ****
6877 HO1   -18.459158   20.743871    6.520443 H    1095 MOH     0.4215 ****
6878 HC1    -7.645388   21.567716   17.518782 H    1096 MOH     0.0372 ****
6879 C1     -8.476772   22.251124   17.349077 C    1096 MOH     0.1166 ****
6880 HC2    -9.398801   21.791028   17.706166 H    1096 MOH     0.0372 ****
6881 HC3    -8.547209   22.439327   16.277810 H    1096 MOH     0.0372 ****
6882 O1     -8.148837   23.471787   18.001029 O    1096 MOH    -0.6497 ****
6883 HO1    -7.535691   23.274603   18.713086 H    1096 MOH     0.4215 ****
6884 HC1    -7.885566   24.394019   13.541307 H    1097 MOH     0.0372 ****
6885 C1     -8.895351   24.073136   13.285334 C    1097 MOH     0.1166 ****
6886 HC2    -9.592790   24.503838   14.004462 H    1097 MOH     0.0372 ****
6887 HC3    -8.976758   22.986788   13.319982 H    1097 MOH     0.0372 ****
6888 O1     -9.250422   24.532416   12.013249 O    1097 MOH    -0.6497 ****
6889 HO1    -8.651709   24.124984   11.383924 H    1097 MOH     0.4215 ****
6890 HC1   -14.395190   11.608091   15.956076 H    1098 MOH     0.0372 ****
6891 C1    -13.813798   12.365392   16.482871 C    1098 MOH     0.1166 ****
6892 HC2   -12.760134   12.121259   16.345692 H    1098 MOH     0.0372 ****
6893 HC3   -14.043584   12.376006   17.547774 H    1098 MOH     0.0372 ****
6894 O1    -13.941970   13.625654   15.930621 O    1098 MOH    -0.6497 ****
6895 HO1   -13.143495   14.102080   16.171744 H    1098 MOH     0.4215 ****
6896 HC1   -14.174642   11.285575   11.293414 H    1099 MOH     0.0372 ****
6897 C1    -14.207551   12.370699   11.194419 C    1099 MOH     0.1166 ****
6898 HC2   -13.762414   12.839776   12.071939 H    1099 MOH     0.0372 ****
6899 HC3   -15.245049   12.696481   11.119466 H    1099 MOH     0.0372 ****
6900 O1    -13.521659   12.747920   10.029107 O    1099 MOH    -0.6497 ****
6901 HO1   -13.420045   13.701180   10.069412 H    1099 MOH     0.4215 ****
6902 HC1    -5.741287   20.102513   12.476404 H    1100 MOH     0.0372 ****
6903 C1     -6.647149   20.427071   11.965166 C    1100 MOH     0.1166 ****
6904 HC2    -7.532805   20.034336   12.464383 H    1100 MOH     0.0372 ****
6905 HC3    -6.639644   20.078835   10.932083 H    1100 MOH     0.0372 ****
6906 O1     -6.740103   21.819197   11.979308 O    1100 MOH    -0.6497 ****
6907 HO1    -6.469903   22.104563   12.855413 H    1100 MOH     0.4215 ****
6908 HC1   -13.207003   24.666321   14.461253 H    1101 MOH     0.0372 ****
6909 C1    -12.543628   23.844517   14.730660 C    1101 MOH     0.1166 ****
6910 HC2   -11.527491   24.230720   14.808442 H    1101 MOH     0.0372 ****
6911 HC3   -12.557484   23.061905   13.971935 H    1101 MOH     0.0372 ****
6912 O1    -12.921792   23.417489   16.017595 O    1101 MOH    -0.6497 ****
6913 HO1   -12.868098   24.186629   16.588937 H    1101 MOH     0.4215 ****
6914 HC1   -18.720698   23.629370    9.583630 H    1102 MOH     0.0372 ****
6915 C1    -19.351165   23.315836   10.415188 C    1102 MOH     0.1166 ****
6916 HC2   -20.327464   23.003117   10.044664 H    1102 MOH     0.0372 ****
6917 HC3   -19.521483   24.142947   11.105324 H    1102 MOH     0.0372 ****
6918 O1    -18.748988   22.261739   11.110981 O    1102 MOH    -0.6497 ****
6919 HO1   -19.399662   21.907379   11.720507 H    1102 MOH     0.4215 ****
6920 HC1   -26.720463   18.293973   12.780460 H    1103 MOH     0.0372 ****
6921 C1    -26.076718   19.078218   12.383773 C    1103 MOH     0.1166 ****
6922 HC2   -26.042654   19.879610   13.121285 H    1103 MOH     0.0372 ****
6923 HC3   -26.475667   19.518310   11.468777 H    1103 MOH     0.0372 ****
6924 O1    -24.764978   18.613632   12.153256 O    1103 MOH    -0.6497 ****
6925 HO1   -24.322728   19.400735   11.827987 H    1103 MOH     0.4215 ****
6926 HC1   -18.041157   16.055140    6.580548 H    1104 MOH     0.0372 ****
6927 C1    -18.777856   16.400926    7.305332 C    1104 MOH     0.1166 ****
6928 HC2   -19.048633   15.593003    7.986276 H    1104 MOH     0.0372 ****
6929 HC3   -19.686605   16.700580    6.784901 H    1104 MOH     0.0372 ****
6930 O1    -18.337915   17.482376    8.099413 O    1104 MOH    -0.6497 ****
6931 HO1   -17.390483   17.413790    8.235177 H    1104 MOH     0.4215 ****
6932 HC1   -19.203940   13.804467   12.342761 H    1105 MOH     0.0372 ****
6933 C1    -18.168751   14.108612   12.186490 C    1105 MOH     0.1166 ****
6934 HC2   -17.579854   13.205975   12.018906 H    1105 MOH     0.0372 ****
6935 HC3   -17.795783   14.665463   13.044918 H    1105 MOH     0.0372 ****
6936 O1    -18.171061   14.840193   11.009864 O    1105 MOH    -0.6497 ****
6937 HO1   -17.533666   15.549320   11.119466 H    1105 MOH     0.4215 ****
6938 HC1    -6.141390   18.996569   16.913499 H    1106 MOH     0.0372 ****
6939 C1     -5.757453   19.593428   16.086184 C    1106 MOH     0.1166 ****
6940 HC2    -5.069828   18.976156   15.507771 H    1106 MOH     0.0372 ****
6941 HC3    -5.256312   20.455240   16.528126 H    1106 MOH     0.0372 ****
6942 O1     -6.822664   20.033111   15.299174 O    1106 MOH    -0.6497 ****
6943 HO1    -7.352094   19.277035   15.037545 H    1106 MOH     0.4215 ****
6944 HC1    -6.249355   24.453215   15.649192 H    1107 MOH     0.0372 ****
6945 C1     -5.609073   23.577931   15.758087 C    1107 MOH     0.1166 ****
6946 HC2    -5.759185   23.177031   16.760764 H    1107 MOH     0.0372 ****
6947 HC3    -4.570420   23.890649   15.652021 H    1107 MOH     0.0372 ****
6948 O1     -5.988393   22.636102   14.754702 O    1107 MOH    -0.6497 ****
6949 HO1    -6.059407   21.762859   15.147146 H    1107 MOH     0.4215 ****
6950 HC1    -8.113619   26.666738   20.070024 H    1108 MOH     0.0372 ****
6951 C1     -7.255099   27.028446   19.504338 C    1108 MOH     0.1166 ****
6952 HC2    -7.603241   27.547737   18.611969 H    1108 MOH     0.0372 ****
6953 HC3    -6.625787   26.187862   19.210889 H    1108 MOH     0.0372 ****
6954 O1     -6.505698   27.918019   20.299833 O    1108 MOH    -0.6497 ****
6955 HO1    -6.338267   27.499564   21.147654 H    1108 MOH     0.4215 ****
6956 HC1   -23.829093   15.515844    5.271693 H    1109 MOH     0.0372 ****
6957 C1    -23.315251   15.824888    6.181739 C    1109 MOH     0.1166 ****
6958 HC2   -22.232142   15.798760    6.065774 H    1109 MOH     0.0372 ****
6959 HC3   -23.618360   15.185571    7.011883 H    1109 MOH     0.0372 ****
6960 O1    -23.754615   17.082292    6.464582 O    1109 MOH    -0.6497 ****
6961 HO1   -24.086591   17.444409    5.639388 H    1109 MOH     0.4215 ****
6962 HC1   -21.977531   18.724675    9.005217 H    1110 MOH     0.0372 ****
6963 C1    -22.859722   19.308062    9.266139 C    1110 MOH     0.1166 ****
6964 HC2   -22.555459   20.306637    9.577266 H    1110 MOH     0.0372 ****
6965 HC3   -23.394926   18.818164   10.079312 H    1110 MOH     0.0372 ****
6966 O1    -23.680714   19.363176    8.098706 O    1110 MOH    -0.6497 ****
6967 HO1   -23.771358   18.474419    7.745859 H    1110 MOH     0.4215 ****
6968 HC1   -14.440801    9.732190   14.456303 H    1111 MOH     0.0372 ****
6969 C1    -13.603065    9.960401   13.796572 C    1111 MOH     0.1166 ****
6970 HC2   -13.245685   10.961834   14.032039 H    1111 MOH     0.0372 ****
6971 HC3   -13.953517    9.915494   12.765611 H    1111 MOH     0.0372 ****
6972 O1    -12.522266    9.018572   14.000926 O    1111 MOH    -0.6497 ****
6973 HO1   -11.689149    9.406816   13.723033 H    1111 MOH     0.4215 ****
6974 HC1   -20.247212   20.587512   14.071637 H    1112 MOH     0.0372 ****
6975 C1    -20.558981   21.630995   14.036281 C    1112 MOH     0.1166 ****
6976 HC2   -19.753000   22.288275   14.364379 H    1112 MOH     0.0372 ****
6977 HC3   -21.401913   21.754286   14.715104 H    1112 MOH     0.0372 ****
6978 O1    -21.012201   21.977189   12.742276 O    1112 MOH    -0.6497 ****
6979 HO1   -21.223511   22.912895   12.771974 H    1112 MOH     0.4215 ****
6980 HC1    -2.796916   28.010528   15.956076 H    1113 MOH     0.0372 ****
6981 C1     -2.215524   28.767828   16.482871 C    1113 MOH     0.1166 ****
6982 HC2    -1.161860   28.523696   16.345692 H    1113 MOH     0.0372 ****
6983 HC3    -2.445309   28.778443   17.547774 H    1113 MOH     0.0372 ****
6984 O1     -2.343696   30.028091   15.930621 O    1113 MOH    -0.6497 ****
6985 HO1    -1.545220   30.504516   16.171744 H    1113 MOH     0.4215 ****
6986 HC1    -2.576368   27.688012   11.293414 H    1114 MOH     0.0372 ****
6987 C1     -2.609277   28.773135   11.194419 C    1114 MOH     0.1166 ****
6988 HC2    -2.164140   29.242213   12.071939 H    1114 MOH     0.0372 ****
6989 HC3    -3.646775   29.098918   11.119466 H    1114 MOH     0.0372 ****
6990 O1     -1.923385   29.150357   10.029107 O    1114 MOH    -0.6497 ****
6991 HO1    -1.821771   30.103617   10.069412 H    1114 MOH     0.4215 ****
6992 HC1    -2.842526   26.134627   14.456303 H    1115 MOH     0.0372 ****
6993 C1     -2.004791   26.362838   13.796572 C    1115 MOH     0.1166 ****
6994 HC2    -1.647411   27.364271   14.032039 H    1115 MOH     0.0372 ****
6995 HC3    -2.355243   26.317930   12.765611 H    1115 MOH     0.0372 ****
6996 O1     -0.923992   25.421009   14.000926 O    1115 MOH    -0.6497 ****
6997 HO1    -0.090875   25.809253   13.723033 H    1115 MOH     0.4215 ****
6998 HC1   -26.905100  -19.565340    6.652107 H    1116 MOH     0.0372 ****
6999 C1    -26.843901  -18.785586    7.410125 C    1116 MOH     0.1166 ****
7000 HC2   -26.483634  -19.231393    8.337849 H    1116 MOH     0.0372 ****
7001 HC3   -27.836943  -18.360191    7.555789 H    1116 MOH     0.0372 ****
7002 O1    -25.972679  -17.762924    6.982326 O    1116 MOH    -0.6497 ****
7003 HO1   -25.085869  -18.122999    6.915858 H    1116 MOH     0.4215 ****
7004 HC1   -20.646623  -14.816188    0.871509 H    1117 MOH     0.0372 ****
7005 C1    -20.213033  -14.623086    1.852266 C    1117 MOH     0.1166 ****
7006 HC2   -19.927245  -13.572255    1.903178 H    1117 MOH     0.0372 ****
7007 HC3   -19.325068  -15.242399    1.978838 H    1117 MOH     0.0372 ****
7008 O1    -21.167393  -14.937846    2.859893 O    1117 MOH    -0.6497 ****
7009 HO1   -20.966475  -15.829460    3.152635 H    1117 MOH     0.4215 ****
7010 HC1   -16.576881  -16.427544   -3.743777 H    1118 MOH     0.0372 ****
7011 C1    -16.771448  -15.686165   -2.968788 C    1118 MOH     0.1166 ****
7012 HC2   -17.835504  -15.644115   -2.736150 H    1118 MOH     0.0372 ****
7013 HC3   -16.470071  -14.697796   -3.315977 H    1118 MOH     0.0372 ****
7014 O1    -16.101722  -16.016438   -1.757514 O    1118 MOH    -0.6497 ****
7015 HO1   -16.319383  -16.910910   -1.485278 H    1118 MOH     0.4215 ****
7016 HC1   -25.759060  -18.122183   -9.737921 H    1119 MOH     0.0372 ****
7017 C1    -26.551184  -18.654538   -9.211834 C    1119 MOH     0.1166 ****
7018 HC2   -26.524049  -18.396934   -8.153295 H    1119 MOH     0.0372 ****
7019 HC3   -26.385485  -19.722108   -9.353962 H    1119 MOH     0.0372 ****
7020 O1    -27.779785  -18.238942   -9.767620 O    1119 MOH    -0.6497 ****
7021 HO1   -28.474338  -18.597792   -9.209712 H    1119 MOH     0.4215 ****
7022 HC1   -25.062775  -10.231151  -10.857271 H    1120 MOH     0.0372 ****
7023 C1    -24.525262   -9.888631  -11.741862 C    1120 MOH     0.1166 ****
7024 HC2   -24.853197  -10.462628  -12.608775 H    1120 MOH     0.0372 ****
7025 HC3   -23.465824  -10.073159  -11.563671 H    1120 MOH     0.0372 ****
7026 O1    -24.785647   -8.507935  -12.010562 O    1120 MOH    -0.6497 ****
7027 HO1   -24.526417   -8.302995  -12.911416 H    1120 MOH     0.4215 ****
7028 HC1   -21.693936  -12.063370   -2.215012 H    1121 MOH     0.0372 ****
7029 C1    -21.645439  -13.150943   -2.265924 C    1121 MOH     0.1166 ****
7030 HC2   -22.023603  -13.505711   -3.224053 H    1121 MOH     0.0372 ****
7031 HC3   -22.252234  -13.597567   -1.478207 H    1121 MOH     0.0372 ****
7032 O1    -20.308873  -13.585319   -2.192385 O    1121 MOH    -0.6497 ****
7033 HO1   -20.341205  -14.544703   -2.171171 H    1121 MOH     0.4215 ****
7034 HC1   -22.497031  -17.644940   -9.293151 H    1122 MOH     0.0372 ****
7035 C1    -22.298422  -16.684332   -8.818682 C    1122 MOH     0.1166 ****
7036 HC2   -21.233788  -16.467144   -8.902121 H    1122 MOH     0.0372 ****
7037 HC3   -22.527630  -16.719441   -7.753780 H    1122 MOH     0.0372 ****
7038 O1    -23.091701  -15.688614   -9.469928 O    1122 MOH    -0.6497 ****
7039 HO1   -23.044359  -14.912534   -8.906364 H    1122 MOH     0.4215 ****
7040 HC1   -23.655773  -23.112201   -4.281178 H    1123 MOH     0.0372 ****
7041 C1    -23.608430  -22.388785   -3.466591 C    1123 MOH     0.1166 ****
7042 HC2   -24.401709  -21.661287   -3.637711 H    1123 MOH     0.0372 ****
7043 HC3   -22.647719  -21.875209   -3.513260 H    1123 MOH     0.0372 ****
7044 O1    -23.793759  -23.030552   -2.172586 O    1123 MOH    -0.6497 ****
7045 HO1   -23.985440  -22.354901   -1.517098 H    1123 MOH     0.4215 ****
7046 HC1   -16.897888  -14.397733    0.037830 H    1124 MOH     0.0372 ****
7047 C1    -16.815327  -13.457946    0.583717 C    1124 MOH     0.1166 ****
7048 HC2   -17.642092  -12.802299    0.310773 H    1124 MOH     0.0372 ****
7049 HC3   -15.858080  -12.995809    0.339058 H    1124 MOH     0.0372 ****
7050 O1    -16.856318  -13.815979    1.925098 O    1124 MOH    -0.6497 ****
7051 HO1   -16.632307  -13.072968    2.489369 H    1124 MOH     0.4215 ****
7052 HC1   -28.242243  -19.311818    1.307087 H    1125 MOH     0.0372 ****
7053 C1    -28.382539  -19.466136    0.237941 C    1125 MOH     0.1166 ****
7054 HC2   -28.578838  -18.511651   -0.251377 H    1125 MOH     0.0372 ****
7055 HC3   -29.216810  -20.145053    0.061872 H    1125 MOH     0.0372 ****
7056 O1    -27.207054  -20.020537   -0.313602 O    1125 MOH    -0.6497 ****
7057 HO1   -26.560422  -20.121374    0.388555 H    1125 MOH     0.4215 ****
7058 HC1   -25.479045  -11.275450    2.597557 H    1126 MOH     0.0372 ****
7059 C1    -24.996380  -12.241366    2.450478 C    1126 MOH     0.1166 ****
7060 HC2   -25.769452  -12.995400    2.302693 H    1126 MOH     0.0372 ****
7061 HC3   -24.431731  -12.483865    3.349918 H    1126 MOH     0.0372 ****
7062 O1    -24.088208  -12.213605    1.327593 O    1126 MOH    -0.6497 ****
7063 HO1   -23.376912  -11.609397    1.556695 H    1126 MOH     0.4215 ****
7064 HC1   -22.914455   -8.003748   10.733527 H    1127 MOH     0.0372 ****
7065 C1    -23.625750   -8.829635   10.722921 C    1127 MOH     0.1166 ****
7066 HC2   -23.263752   -9.560807    9.999550 H    1127 MOH     0.0372 ****
7067 HC3   -24.614751   -8.457312   10.452806 H    1127 MOH     0.0372 ****
7068 O1    -23.689259   -9.403224   12.007734 O    1127 MOH    -0.6497 ****
7069 HO1   -23.965232   -8.719408   12.622209 H    1127 MOH     0.4215 ****
7070 HC1   -22.186993  -19.262828    0.370877 H    1128 MOH     0.0372 ****
7071 C1    -22.203737  -20.269977   -0.047023 C    1128 MOH     0.1166 ****
7072 HC2   -21.702019  -20.928481    0.660791 H    1128 MOH     0.0372 ****
7073 HC3   -21.652367  -20.298554   -0.987475 H    1128 MOH     0.0372 ****
7074 O1    -23.546653  -20.705578   -0.196222 O    1128 MOH    -0.6497 ****
7075 HO1   -24.038556  -20.444707    0.586545 H    1128 MOH     0.4215 ****
7076 HC1   -24.339355  -12.544286   -3.294057 H    1129 MOH     0.0372 ****
7077 C1    -24.743500  -12.198500   -4.245116 C    1129 MOH     0.1166 ****
7078 HC2   -25.676498  -12.721874   -4.457248 H    1129 MOH     0.0372 ****
7079 HC3   -24.022390  -12.343428   -5.049096 H    1129 MOH     0.0372 ****
7080 O1    -24.990029  -10.832501   -4.090966 O    1129 MOH    -0.6497 ****
7081 HO1   -24.165573  -10.376896   -3.902876 H    1129 MOH     0.4215 ****
7082 HC1   -27.387187  -20.225069    3.328705 H    1130 MOH     0.0372 ****
7083 C1    -26.633168  -20.978696    3.101017 C    1130 MOH     0.1166 ****
7084 HC2   -27.119297  -21.868269    2.701501 H    1130 MOH     0.0372 ****
7085 HC3   -26.144152  -21.268144    4.030862 H    1130 MOH     0.0372 ****
7086 O1    -25.699015  -20.436542    2.156322 O    1130 MOH    -0.6497 ****
7087 HO1   -25.482509  -19.538804    2.415830 H    1130 MOH     0.4215 ****
7088 HC1   -22.099814  -10.656954   -4.960708 H    1131 MOH     0.0372 ****
7089 C1    -21.679503   -9.773505   -4.479875 C    1131 MOH     0.1166 ****
7090 HC2   -21.426046   -9.031718   -5.237187 H    1131 MOH     0.0372 ****
7091 HC3   -20.792693  -10.056421   -3.913483 H    1131 MOH     0.0372 ****
7092 O1    -22.684669   -9.277075   -3.656803 O    1131 MOH    -0.6497 ****
7093 HO1   -22.328444   -9.080708   -2.787769 H    1131 MOH     0.4215 ****
7094 HC1   -27.748609   -8.349127    7.615186 H    1132 MOH     0.0372 ****
7095 C1    -27.791333   -7.475067    6.965355 C    1132 MOH     0.1166 ****
7096 HC2   -26.990548   -6.774921    7.203650 H    1132 MOH     0.0372 ****
7097 HC3   -28.730682   -6.959041    7.160517 H    1132 MOH     0.0372 ****
7098 O1    -27.790755   -7.829427    5.573769 O    1132 MOH    -0.6497 ****
7099 HO1   -27.681636   -7.037017    5.042732 H    1132 MOH     0.4215 ****
7100 HC1   -22.640214  -20.195267    8.143395 H    1133 MOH     0.0372 ****
7101 C1    -22.565158  -19.153418    7.833682 C    1133 MOH     0.1166 ****
7102 HC2   -21.526505  -18.928881    7.590438 H    1133 MOH     0.0372 ****
7103 HC3   -22.927157  -18.552068    8.668775 H    1133 MOH     0.0372 ****
7104 O1    -23.453123  -18.995834    6.757466 O    1133 MOH    -0.6497 ****
7105 HO1   -23.085928  -19.516350    6.039752 H    1133 MOH     0.4215 ****
7106 HC1   -24.017771  -11.722074   -7.835097 H    1134 MOH     0.0372 ****
7107 C1    -23.274144  -12.242999   -8.437552 C    1134 MOH     0.1166 ****
7108 HC2   -22.358466  -11.653488   -8.485635 H    1134 MOH     0.0372 ****
7109 HC3   -23.610162  -12.364249   -9.467806 H    1134 MOH     0.0372 ****
7110 O1    -22.935817  -13.471826   -7.853482 O    1134 MOH    -0.6497 ****
7111 HO1   -23.639607  -13.743311   -7.260219 H    1134 MOH     0.4215 ****
7112 HC1   -23.301857  -17.399175   -3.175263 H    1135 MOH     0.0372 ****
7113 C1    -23.341117  -18.468785   -3.380324 C    1135 MOH     0.1166 ****
7114 HC2   -24.119385  -18.897038   -2.748878 H    1135 MOH     0.0372 ****
7115 HC3   -22.372323  -18.905203   -3.136372 H    1135 MOH     0.0372 ****
7116 O1    -23.629792  -18.760683   -4.748576 O    1135 MOH    -0.6497 ****
7117 HO1   -23.200243  -19.575138   -5.020812 H    1135 MOH     0.4215 ****
7118 HC1   -19.140316  -18.719041   -5.421741 H    1136 MOH     0.0372 ****
7119 C1    -19.662818  -17.789868   -5.194053 C    1136 MOH     0.1166 ****
7120 HC2   -20.695120  -18.002974   -4.915453 H    1136 MOH     0.0372 ****
7121 HC3   -19.622404  -17.143611   -6.070158 H    1136 MOH     0.0372 ****
7122 O1    -18.975194  -17.226486   -4.127736 O    1136 MOH    -0.6497 ****
7123 HO1   -18.512736  -17.941737   -3.685087 H    1136 MOH     0.4215 ****
7124 HC1   -24.267186  -16.574513   -5.802872 H    1137 MOH     0.0372 ****
7125 C1    -25.204226  -16.318542   -6.295725 C    1137 MOH     0.1166 ****
7126 HC2   -26.042539  -16.650447   -5.682664 H    1137 MOH     0.0372 ****
7127 HC3   -25.222701  -16.817421   -7.264462 H    1137 MOH     0.0372 ****
7128 O1    -25.234826  -14.934988   -6.512807 O    1137 MOH    -0.6497 ****
7129 HO1   -26.151080  -14.693713   -6.664835 H    1137 MOH     0.4215 ****
7130 HC1   -21.755713  -23.932780   -0.837568 H    1138 MOH     0.0372 ****
7131 C1    -20.884491  -23.429410   -1.256882 C    1138 MOH     0.1166 ****
7132 HC2   -21.182404  -22.480233   -1.700238 H    1138 MOH     0.0372 ****
7133 HC3   -20.445705  -24.040966   -2.046014 H    1138 MOH     0.0372 ****
7134 O1    -19.915698  -23.154251   -0.271175 O    1138 MOH    -0.6497 ****
7135 HO1   -19.485572  -23.992385   -0.088035 H    1138 MOH     0.4215 ****
7136 HC1   -26.203042   -8.353209   -2.564323 H    1139 MOH     0.0372 ****
7137 C1    -27.218024   -8.736554   -2.668268 C    1139 MOH     0.1166 ****
7138 HC2   -27.939134   -7.919241   -2.647054 H    1139 MOH     0.0372 ****
7139 HC3   -27.453005   -9.431393   -1.862166 H    1139 MOH     0.0372 ****
7140 O1    -27.345618   -9.448539   -3.850550 O    1139 MOH    -0.6497 ****
7141 HO1   -26.625085  -10.081732   -3.882370 H    1139 MOH     0.4215 ****
7142 HC1   -23.328992  -16.635342    4.695542 H    1140 MOH     0.0372 ****
7143 C1    -23.951376  -15.740870    4.686350 C    1140 MOH     0.1166 ****
7144 HC2   -23.507394  -14.953767    5.295876 H    1140 MOH     0.0372 ****
7145 HC3   -24.923056  -16.018887    5.095765 H    1140 MOH     0.0372 ****
7146 O1    -24.130932  -15.288123    3.364767 O    1140 MOH    -0.6497 ****
7147 HO1   -23.273567  -15.012555    3.031720 H    1140 MOH     0.4215 ****
7148 HC1   -27.345041  -10.988452   -6.785043 H    1141 MOH     0.0372 ****
7149 C1    -26.752102  -11.326890   -7.634279 C    1141 MOH     0.1166 ****
7150 HC2   -26.384907  -12.322607   -7.386084 H    1141 MOH     0.0372 ****
7151 HC3   -25.905129  -10.656954   -7.786306 H    1141 MOH     0.0372 ****
7152 O1    -27.556351  -11.377921   -8.804540 O    1141 MOH    -0.6497 ****
7153 HO1   -27.149319  -12.028260   -9.382247 H    1141 MOH     0.4215 ****
7154 HC1   -27.700111  -16.455713    2.536038 H    1142 MOH     0.0372 ****
7155 C1    -27.246314  -15.576346    2.992829 C    1142 MOH     0.1166 ****
7156 HC2   -26.409156  -15.259545    2.370575 H    1142 MOH     0.0372 ****
7157 HC3   -26.942628  -15.825378    4.009649 H    1142 MOH     0.0372 ****
7158 O1    -28.196632  -14.578587    2.957474 O    1142 MOH    -0.6497 ****
7159 HO1   -28.524567  -14.523065    2.056620 H    1142 MOH     0.4215 ****
7160 HC1   -20.337163  -13.136654    7.912878 H    1143 MOH     0.0372 ****
7161 C1    -20.590043  -12.271984    8.526647 C    1143 MOH     0.1166 ****
7162 HC2   -19.782330  -12.088681    9.234461 H    1143 MOH     0.0372 ****
7163 HC3   -21.508030  -12.504686    9.065462 H    1143 MOH     0.0372 ****
7164 O1    -20.782300  -11.163590    7.670341 O    1143 MOH    -0.6497 ****
7165 HO1   -21.467615  -11.434667    7.055158 H    1143 MOH     0.4215 ****
7166 HC1   -24.077816  -20.396125    4.378759 H    1144 MOH     0.0372 ****
7167 C1    -23.255092  -21.086881    4.193497 C    1144 MOH     0.1166 ****
7168 HC2   -22.979695  -20.965632    3.146272 H    1144 MOH     0.0372 ****
7169 HC3   -23.563397  -22.126690    4.300270 H    1144 MOH     0.0372 ****
7170 O1    -22.165054  -20.776205    5.078087 O    1144 MOH    -0.6497 ****
7171 HO1   -21.554218  -21.516767    5.090815 H    1144 MOH     0.4215 ****
7172 HC1   -28.330578  -19.054622   -4.816458 H    1145 MOH     0.0372 ****
7173 C1    -27.403353  -19.231393   -4.272693 C    1145 MOH     0.1166 ****
7174 HC2   -27.469171  -20.156075   -3.699229 H    1145 MOH     0.0372 ****
7175 HC3   -27.179919  -18.394892   -3.610134 H    1145 MOH     0.0372 ****
7176 O1    -26.399918  -19.333455   -5.203245 O    1145 MOH    -0.6497 ****
7177 HO1   -25.589896  -18.992568   -4.816458 H    1145 MOH     0.4215 ****
7178 HC1   -19.243662  -19.438375    3.313856 H    1146 MOH     0.0372 ****
7179 C1    -20.075046  -18.754967    3.144150 C    1146 MOH     0.1166 ****
7180 HC2   -20.997075  -19.215063    3.501239 H    1146 MOH     0.0372 ****
7181 HC3   -20.145483  -18.566765    2.072883 H    1146 MOH     0.0372 ****
7182 O1    -19.747111  -17.534305    3.796103 O    1146 MOH    -0.6497 ****
7183 HO1   -19.133965  -17.731489    4.508159 H    1146 MOH     0.4215 ****
7184 HC1   -26.737091  -17.208931   11.797016 H    1147 MOH     0.0372 ****
7185 C1    -27.628520  -16.582270   11.765196 C    1147 MOH     0.1166 ****
7186 HC2   -28.517062  -17.213013   11.724891 H    1147 MOH     0.0372 ****
7187 HC3   -27.619282  -15.964182   10.867170 H    1147 MOH     0.0372 ****
7188 O1    -27.618128  -15.734746   12.886667 O    1147 MOH    -0.6497 ****
7189 HO1   -26.862376  -15.154626   12.769995 H    1147 MOH     0.4215 ****
7190 HC1   -19.483840  -16.612072   -0.663620 H    1148 MOH     0.0372 ****
7191 C1    -20.493625  -16.932955   -0.919592 C    1148 MOH     0.1166 ****
7192 HC2   -21.191064  -16.502253   -0.200465 H    1148 MOH     0.0372 ****
7193 HC3   -20.575032  -18.019304   -0.884944 H    1148 MOH     0.0372 ****
7194 O1    -20.848696  -16.473676   -2.191678 O    1148 MOH    -0.6497 ****
7195 HO1   -20.249983  -16.881108   -2.821003 H    1148 MOH     0.4215 ****
7196 HC1   -25.080096  -15.947035   10.383509 H    1149 MOH     0.0372 ****
7197 C1    -24.855507  -14.881099   10.433714 C    1149 MOH     0.1166 ****
7198 HC2   -25.214618  -14.333230    9.562558 H    1149 MOH     0.0372 ****
7199 HC3   -23.769511  -14.834559   10.361589 H    1149 MOH     0.0372 ****
7200 O1    -25.216350  -14.283015   11.700142 O    1149 MOH    -0.6497 ****
7201 HO1   -25.288519  -13.334246   11.574277 H    1149 MOH     0.4215 ****
7202 HC1   -23.680599   -9.503653    0.610587 H    1150 MOH     0.0372 ****
7203 C1    -24.173078   -9.067235   -0.258448 C    1150 MOH     0.1166 ****
7204 HC2   -25.115314   -8.579787   -0.008132 H    1150 MOH     0.0372 ****
7205 HC3   -24.425380   -9.901695   -0.913229 H    1150 MOH     0.0372 ****
7206 O1    -23.335343   -8.142145   -0.958483 O    1150 MOH    -0.6497 ****
7207 HO1   -23.876320   -7.442407   -1.330422 H    1150 MOH     0.4215 ****
7208 HC1   -17.339561  -20.903578   -1.728523 H    1151 MOH     0.0372 ****
7209 C1    -18.245423  -20.579021   -2.239761 C    1151 MOH     0.1166 ****
7210 HC2   -19.131079  -20.971756   -1.740543 H    1151 MOH     0.0372 ****
7211 HC3   -18.237918  -20.927256   -3.272844 H    1151 MOH     0.0372 ****
7212 O1    -18.338377  -19.186894   -2.225619 O    1151 MOH    -0.6497 ****
7213 HO1   -18.068177  -18.901528   -1.349513 H    1151 MOH     0.4215 ****
7214 HC1   -24.805277  -16.339770    0.256326 H    1152 MOH     0.0372 ****
7215 C1    -24.141902  -17.161574    0.525734 C    1152 MOH     0.1166 ****
7216 HC2   -23.125765  -16.775371    0.603516 H    1152 MOH     0.0372 ****
7217 HC3   -24.155758  -17.944186   -0.232992 H    1152 MOH     0.0372 ****
7218 O1    -24.520066  -17.588602    1.812668 O    1152 MOH    -0.6497 ****
7219 HO1   -24.466372  -16.819462    2.384010 H    1152 MOH     0.4215 ****
7220 HC1   -21.025365  -10.140520    4.359667 H    1153 MOH     0.0372 ****
7221 C1    -21.364847  -10.886390    3.640539 C    1153 MOH     0.1166 ****
7222 HC2   -21.871183  -11.723707    4.122079 H    1153 MOH     0.0372 ****
7223 HC3   -20.478037  -11.283207    3.145564 H    1153 MOH     0.0372 ****
7224 O1    -22.206046  -10.265852    2.685945 O    1153 MOH    -0.6497 ****
7225 HO1   -21.676616   -9.580812    2.270166 H    1153 MOH     0.4215 ****
7226 HC1   -27.656810  -12.644307   -1.477500 H    1154 MOH     0.0372 ****
7227 C1    -27.000363  -12.368739   -0.652306 C    1154 MOH     0.1166 ****
7228 HC2   -27.547113  -12.404665    0.290974 H    1154 MOH     0.0372 ****
7229 HC3   -26.653953  -11.346077   -0.802920 H    1154 MOH     0.0372 ****
7230 O1    -25.881458  -13.240758   -0.587252 O    1154 MOH    -0.6497 ****
7231 HO1   -25.276395  -12.914159    0.083085 H    1154 MOH     0.4215 ****
7232 HC1   -23.880362   -7.929447    6.290068 H    1155 MOH     0.0372 ****
7233 C1    -24.192131   -8.348310    7.247491 C    1155 MOH     0.1166 ****
7234 HC2   -24.719252   -7.602032    7.840046 H    1155 MOH     0.0372 ****
7235 HC3   -23.299548   -8.681849    7.775700 H    1155 MOH     0.0372 ****
7236 O1    -25.006772   -9.462420    7.020510 O    1155 MOH    -0.6497 ****
7237 HO1   -25.692664   -9.221145    6.394720 H    1155 MOH     0.4215 ****
7238 HC1   -29.043028  -11.005190    5.082330 H    1156 MOH     0.0372 ****
7239 C1    -28.461059  -10.762690    4.192789 C    1156 MOH     0.1166 ****
7240 HC2   -28.497432  -11.584494    3.477905 H    1156 MOH     0.0372 ****
7241 HC3   -27.433953  -10.619395    4.530079 H    1156 MOH     0.0372 ****
7242 O1    -28.926981   -9.518350    3.661045 O    1156 MOH    -0.6497 ****
7243 HO1   -28.511288   -8.841066    4.199153 H    1156 MOH     0.4215 ****
7244 HC1   -17.739664  -22.009523    2.708573 H    1157 MOH     0.0372 ****
7245 C1    -17.355726  -21.412664    1.881258 C    1157 MOH     0.1166 ****
7246 HC2   -16.668102  -22.029935    1.302844 H    1157 MOH     0.0372 ****
7247 HC3   -16.854586  -20.550852    2.323199 H    1157 MOH     0.0372 ****
7248 O1    -18.420938  -20.972980    1.094248 O    1157 MOH    -0.6497 ****
7249 HO1   -18.950368  -21.729056    0.832618 H    1157 MOH     0.4215 ****
7250 HC1   -27.273449  -13.013363    7.309009 H    1158 MOH     0.0372 ****
7251 C1    -27.209941  -13.936413    6.732717 C    1158 MOH     0.1166 ****
7252 HC2   -26.178216  -14.140537    6.447046 H    1158 MOH     0.0372 ****
7253 HC3   -27.827128  -13.824553    5.841763 H    1158 MOH     0.0372 ****
7254 O1    -27.727824  -14.989693    7.497807 O    1158 MOH    -0.6497 ****
7255 HO1   -27.477831  -15.814355    7.073543 H    1158 MOH     0.4215 ****
7256 HC1   -17.847629  -16.552876    1.444266 H    1159 MOH     0.0372 ****
7257 C1    -17.207347  -17.428160    1.553160 C    1159 MOH     0.1166 ****
7258 HC2   -17.357459  -17.829060    2.555837 H    1159 MOH     0.0372 ****
7259 HC3   -16.168694  -17.115442    1.447094 H    1159 MOH     0.0372 ****
7260 O1    -17.586667  -18.369989    0.549775 O    1159 MOH    -0.6497 ****
7261 HO1   -17.657681  -19.243232    0.942220 H    1159 MOH     0.4215 ****
7262 HC1   -19.711893  -14.339354    5.865097 H    1160 MOH     0.0372 ****
7263 C1    -18.853373  -13.977646    5.299412 C    1160 MOH     0.1166 ****
7264 HC2   -19.201515  -13.458354    4.407043 H    1160 MOH     0.0372 ****
7265 HC3   -18.224061  -14.818229    5.005962 H    1160 MOH     0.0372 ****
7266 O1    -18.103972  -13.088073    6.094907 O    1160 MOH    -0.6497 ****
7267 HO1   -17.936541  -13.506527    6.942728 H    1160 MOH     0.4215 ****
7268 HC1   -18.912840  -13.018262   -4.066925 H    1161 MOH     0.0372 ****
7269 C1    -19.359709  -12.604299   -4.970607 C    1161 MOH     0.1166 ****
7270 HC2   -20.387393  -12.285457   -4.798780 H    1161 MOH     0.0372 ****
7271 HC3   -19.329110  -13.376704   -5.739939 H    1161 MOH     0.0372 ****
7272 O1    -18.549109  -11.539995   -5.358809 O    1161 MOH    -0.6497 ****
7273 HO1   -18.367244  -10.993759   -4.590891 H    1161 MOH     0.4215 ****
7274 HC1   -25.686891  -15.270568   -9.472756 H    1162 MOH     0.0372 ****
7275 C1    -26.611229  -14.755359   -9.734386 C    1162 MOH     0.1166 ****
7276 HC2   -27.324256  -14.802307   -8.910606 H    1162 MOH     0.0372 ****
7277 HC3   -27.047128  -15.201574  -10.627462 H    1162 MOH     0.0372 ****
7278 O1    -26.373360  -13.406098  -10.013693 O    1162 MOH    -0.6497 ****
7279 HO1   -25.868756  -13.375888  -10.829694 H    1162 MOH     0.4215 ****
7280 HC1   -27.130267  -10.191143   11.166277 H    1163 MOH     0.0372 ****
7281 C1    -26.692635  -11.094596   10.741305 C    1163 MOH     0.1166 ****
7282 HC2   -26.448993  -10.899454    9.697616 H    1163 MOH     0.0372 ****
7283 HC3   -27.398157  -11.920891   10.834643 H    1163 MOH     0.0372 ****
7284 O1    -25.556410  -11.392209   11.488717 O    1163 MOH    -0.6497 ****
7285 HO1   -24.928830  -10.666344   11.440634 H    1163 MOH     0.4215 ****
7286 HC1   -25.149378  -12.405073    7.364163 H    1164 MOH     0.0372 ****
7287 C1    -24.223885  -12.105419    7.857724 C    1164 MOH     0.1166 ****
7288 HC2   -23.779903  -12.959475    8.369669 H    1164 MOH     0.0372 ****
7289 HC3   -24.469837  -11.353426    8.607257 H    1164 MOH     0.0372 ****
7290 O1    -23.341694  -11.606131    6.831712 O    1164 MOH    -0.6497 ****
7291 HO1   -23.532220  -10.667977    6.756759 H    1164 MOH     0.4215 ****
7292 HC1   -26.732472   -8.536104    2.712108 H    1165 MOH     0.0372 ****
7293 C1    -25.786772   -8.193176    3.132129 C    1165 MOH     0.1166 ****
7294 HC2   -25.900510   -7.218687    3.608012 H    1165 MOH     0.0372 ****
7295 HC3   -25.057002   -8.079683    2.330270 H    1165 MOH     0.0372 ****
7296 O1    -25.345100   -9.115409    4.104401 O    1165 MOH    -0.6497 ****
7297 HO1   -24.513715   -9.503653    3.822266 H    1165 MOH     0.4215 ****
7298 HC1   -26.814456  -16.601866   -2.217133 H    1166 MOH     0.0372 ****
7299 C1    -26.032724  -15.928664   -2.568566 C    1166 MOH     0.1166 ****
7300 HC2   -25.473271  -16.363449   -3.396588 H    1166 MOH     0.0372 ****
7301 HC3   -25.347409  -15.723724   -1.746907 H    1166 MOH     0.0372 ****
7302 O1    -26.606610  -14.729231   -3.014043 O    1166 MOH    -0.6497 ****
7303 HO1   -26.411465  -14.085832   -2.328149 H    1166 MOH     0.4215 ****
7304 HC1   -21.914600    6.139034   -1.945605 H    1167 MOH     0.0372 ****
7305 C1    -22.950943    6.277838   -1.638720 C    1167 MOH     0.1166 ****
7306 HC2   -23.514437    6.641996   -2.497148 H    1167 MOH     0.0372 ****
7307 HC3   -23.020803    7.027790   -0.850296 H    1167 MOH     0.0372 ****
7308 O1    -23.476332    5.035130   -1.221527 O    1167 MOH    -0.6497 ****
7309 HO1   -24.239012    5.187407   -0.659377 H    1167 MOH     0.4215 ****
7310 HC1   -27.416170   -4.401937    2.145715 H    1168 MOH     0.0372 ****
7311 C1    -28.216955   -4.795897    2.771505 C    1168 MOH     0.1166 ****
7312 HC2   -28.782758   -5.526253    2.192384 H    1168 MOH     0.0372 ****
7313 HC3   -28.889568   -4.019000    3.132836 H    1168 MOH     0.0372 ****
7314 O1    -27.719857   -5.536867    3.815902 O    1168 MOH    -0.6497 ****
7315 HO1   -27.175415   -4.940825    4.334918 H    1168 MOH     0.4215 ****
7316 HC1   -15.685568   -9.267440   -6.761002 H    1169 MOH     0.0372 ****
7317 C1    -15.872629  -10.253360   -6.336030 C    1169 MOH     0.1166 ****
7318 HC2   -16.264650  -10.158646   -5.323453 H    1169 MOH     0.0372 ****
7319 HC3   -14.915382  -10.769794   -6.267441 H    1169 MOH     0.0372 ****
7320 O1    -16.713828  -11.057201   -7.185266 O    1169 MOH    -0.6497 ****
7321 HO1   -17.429743  -11.403395   -6.647864 H    1169 MOH     0.4215 ****
7322 HC1   -13.055160   -8.795505   -0.124097 H    1170 MOH     0.0372 ****
7323 C1    -13.903865   -8.360721    0.404111 C    1170 MOH     0.1166 ****
7324 HC2   -14.040119   -7.333568    0.066114 H    1170 MOH     0.0372 ****
7325 HC3   -13.739320   -8.372968    1.481742 H    1170 MOH     0.0372 ****
7326 O1    -15.069535   -9.058825    0.070357 O    1170 MOH    -0.6497 ****
7327 HO1   -15.042399   -9.859400    0.599980 H    1170 MOH     0.4215 ****
7328 HC1   -14.160785   -1.719746   -9.737921 H    1171 MOH     0.0372 ****
7329 C1    -14.952910   -2.252102   -9.211834 C    1171 MOH     0.1166 ****
7330 HC2   -14.925775   -1.994497   -8.153295 H    1171 MOH     0.0372 ****
7331 HC3   -14.787210   -3.319671   -9.353962 H    1171 MOH     0.0372 ****
7332 O1    -16.181511   -1.836505   -9.767620 O    1171 MOH    -0.6497 ****
7333 HO1   -16.876064   -2.195355   -9.209712 H    1171 MOH     0.4215 ****
7334 HC1   -13.464501    6.171285  -10.857271 H    1172 MOH     0.0372 ****
7335 C1    -12.926988    6.513806  -11.741862 C    1172 MOH     0.1166 ****
7336 HC2   -13.254923    5.939808  -12.608775 H    1172 MOH     0.0372 ****
7337 HC3   -11.867550    6.329277  -11.563671 H    1172 MOH     0.0372 ****
7338 O1    -13.187373    7.894501  -12.010562 O    1172 MOH    -0.6497 ****
7339 HO1   -12.928143    8.099442  -12.911416 H    1172 MOH     0.4215 ****
7340 HC1   -22.803142   -0.633805    7.108191 H    1173 MOH     0.0372 ****
7341 C1    -23.823320   -0.926519    7.356385 C    1173 MOH     0.1166 ****
7342 HC2   -23.984400   -0.868956    8.431895 H    1173 MOH     0.0372 ****
7343 HC3   -24.031743   -1.948773    7.039601 H    1173 MOH     0.0372 ****
7344 O1    -24.709552   -0.034089    6.755344 O    1173 MOH    -0.6497 ****
7345 HO1   -24.258064    0.342316    5.995912 H    1173 MOH     0.4215 ****
7346 HC1   -19.005909    3.314364   -7.788428 H    1174 MOH     0.0372 ****
7347 C1    -18.960298    2.859575   -8.778377 C    1174 MOH     0.1166 ****
7348 HC2   -18.042889    2.280679   -8.887272 H    1174 MOH     0.0372 ****
7349 HC3   -18.970691    3.637288   -9.541346 H    1174 MOH     0.0372 ****
7350 O1    -20.063615    2.023074   -8.995459 O    1174 MOH    -0.6497 ****
7351 HO1   -19.804384    1.135543   -8.738072 H    1174 MOH     0.4215 ****
7352 HC1   -10.898756   -1.242504   -9.293151 H    1175 MOH     0.0372 ****
7353 C1    -10.700148   -0.281896   -8.818682 C    1175 MOH     0.1166 ****
7354 HC2    -9.635514   -0.064707   -8.902121 H    1175 MOH     0.0372 ****
7355 HC3   -10.929356   -0.317005   -7.753780 H    1175 MOH     0.0372 ****
7356 O1    -11.493427    0.713822   -9.469928 O    1175 MOH    -0.6497 ****
7357 HO1   -11.446084    1.489902   -8.906364 H    1175 MOH     0.4215 ****
7358 HC1   -28.204254    2.152897    3.312441 H    1176 MOH     0.0372 ****
7359 C1    -27.163868    2.180250    2.986465 C    1176 MOH     0.1166 ****
7360 HC2   -26.579590    1.540525    3.649024 H    1176 MOH     0.0372 ****
7361 HC3   -26.822654    3.213935    3.040205 H    1176 MOH     0.0372 ****
7362 O1    -27.096896    1.698109    1.663468 O    1176 MOH    -0.6497 ****
7363 HO1   -27.691566    0.945299    1.619628 H    1176 MOH     0.4215 ****
7364 HC1   -25.323853   -2.529302   -0.847468 H    1177 MOH     0.0372 ****
7365 C1    -24.409330   -2.223116   -1.355170 C    1177 MOH     0.1166 ****
7366 HC2   -23.814082   -1.568694   -0.718067 H    1177 MOH     0.0372 ****
7367 HC3   -24.684726   -1.676880   -2.257439 H    1177 MOH     0.0372 ****
7368 O1    -23.707272   -3.362537   -1.753271 O    1177 MOH    -0.6497 ****
7369 HO1   -22.772542   -3.163720   -1.663469 H    1177 MOH     0.4215 ****
7370 HC1   -12.057498   -6.709765   -4.281178 H    1178 MOH     0.0372 ****
7371 C1    -12.010156   -5.986349   -3.466591 C    1178 MOH     0.1166 ****
7372 HC2   -12.803435   -5.258850   -3.637711 H    1178 MOH     0.0372 ****
7373 HC3   -11.049445   -5.472772   -3.513260 H    1178 MOH     0.0372 ****
7374 O1    -12.195485   -6.628115   -2.172586 O    1178 MOH    -0.6497 ****
7375 HO1   -12.387165   -5.952464   -1.517098 H    1178 MOH     0.4215 ****
7376 HC1    -5.299614    2.004703    0.037830 H    1179 MOH     0.0372 ****
7377 C1     -5.217053    2.944491    0.583717 C    1179 MOH     0.1166 ****
7378 HC2    -6.043818    3.600138    0.310773 H    1179 MOH     0.0372 ****
7379 HC3    -4.259806    3.406628    0.339058 H    1179 MOH     0.0372 ****
7380 O1     -5.258044    2.586457    1.925098 O    1179 MOH    -0.6497 ****
7381 HO1    -5.034032    3.329469    2.489369 H    1179 MOH     0.4215 ****
7382 HC1   -17.317737   -4.025124    8.731001 H    1180 MOH     0.0372 ****
7383 C1    -17.018092   -5.072281    8.716152 C    1180 MOH     0.1166 ****
7384 HC2   -16.384161   -5.260892    7.849239 H    1180 MOH     0.0372 ****
7385 HC3   -17.885850   -5.726295    8.636956 H    1180 MOH     0.0372 ****
7386 O1    -16.313147   -5.383366    9.909748 O    1180 MOH    -0.6497 ****
7387 HO1   -15.878980   -6.231706    9.790954 H    1180 MOH     0.4215 ****
7388 HC1   -25.068664   -0.757505   -5.316383 H    1181 MOH     0.0372 ****
7389 C1    -25.609064    0.112064   -5.689735 C    1181 MOH     0.1166 ****
7390 HC2   -26.052469   -0.217392   -6.629480 H    1181 MOH     0.0372 ****
7391 HC3   -24.886221    0.915089   -5.836106 H    1181 MOH     0.0372 ****
7392 O1    -26.600374    0.450502   -4.696250 O    1181 MOH    -0.6497 ****
7393 HO1   -27.236037   -0.263524   -4.613518 H    1181 MOH     0.4215 ****
7394 HC1   -26.625200   -7.529527   -9.625491 H    1182 MOH     0.0372 ****
7395 C1    -26.212395   -6.521971   -9.662261 C    1182 MOH     0.1166 ****
7396 HC2   -26.297843   -6.051260   -8.682918 H    1182 MOH     0.0372 ****
7397 HC3   -26.789168   -5.934093  -10.376439 H    1182 MOH     0.0372 ****
7398 O1    -24.872942   -6.577492  -10.093596 O    1182 MOH    -0.6497 ****
7399 HO1   -24.839456   -7.238038  -10.789389 H    1182 MOH     0.4215 ****
7400 HC1   -10.511932   -9.372768   -3.676602 H    1183 MOH     0.0372 ****
7401 C1    -11.192050   -9.941458   -3.042327 C    1183 MOH     0.1166 ****
7402 HC2   -10.837557   -9.904308   -2.012072 H    1183 MOH     0.0372 ****
7403 HC3   -11.246899  -10.978001   -3.373960 H    1183 MOH     0.0372 ****
7404 O1    -12.424693   -9.318471   -3.124351 O    1183 MOH    -0.6497 ****
7405 HO1   -12.322502   -8.425632   -2.788476 H    1183 MOH     0.4215 ****
7406 HC1   -19.410632   13.796547    5.638116 H    1184 MOH     0.0372 ****
7407 C1    -19.752423   13.127020    4.848984 C    1184 MOH     0.1166 ****
7408 HC2   -20.250676   12.250919    5.264763 H    1184 MOH     0.0372 ****
7409 HC3   -18.880047   12.808994    4.278349 H    1184 MOH     0.0372 ****
7410 O1    -20.533578   13.856968    3.926917 O    1184 MOH    -0.6497 ****
7411 HO1   -20.506442   13.369927    3.100309 H    1184 MOH     0.4215 ****
7412 HC1   -16.643969   -2.909381    1.307087 H    1185 MOH     0.0372 ****
7413 C1    -16.784265   -3.063699    0.237941 C    1185 MOH     0.1166 ****
7414 HC2   -16.980564   -2.109215   -0.251377 H    1185 MOH     0.0372 ****
7415 HC3   -17.618536   -3.742616    0.061872 H    1185 MOH     0.0372 ****
7416 O1    -15.608780   -3.618100   -0.313602 O    1185 MOH    -0.6497 ****
7417 HO1   -14.962148   -3.718938    0.388555 H    1185 MOH     0.4215 ****
7418 HC1   -19.187774   -3.115547   -6.061673 H    1186 MOH     0.0372 ****
7419 C1    -19.348855   -4.128411   -5.693270 C    1186 MOH     0.1166 ****
7420 HC2   -20.099988   -4.083504   -4.905553 H    1186 MOH     0.0372 ****
7421 HC3   -18.423940   -4.528902   -5.278199 H    1186 MOH     0.0372 ****
7422 O1    -19.800343   -4.975118   -6.749688 O    1186 MOH    -0.6497 ****
7423 HO1   -19.395620   -5.833256   -6.599781 H    1186 MOH     0.4215 ****
7424 HC1   -10.182265   -8.998405    1.552453 H    1187 MOH     0.0372 ****
7425 C1    -10.348542   -8.911448    2.626548 C    1187 MOH     0.1166 ****
7426 HC2   -10.276373   -7.855309    2.886056 H    1187 MOH     0.0372 ****
7427 HC3    -9.561613   -9.465441    3.139201 H    1187 MOH     0.0372 ****
7428 O1    -11.674138   -9.430331    2.860600 O    1187 MOH    -0.6497 ****
7429 HO1   -11.985330   -9.081687    3.699229 H    1187 MOH     0.4215 ****
7430 HC1   -11.316181    8.398688   10.733527 H    1188 MOH     0.0372 ****
7431 C1    -12.027476    7.572802   10.722921 C    1188 MOH     0.1166 ****
7432 HC2   -11.665478    6.841629    9.999550 H    1188 MOH     0.0372 ****
7433 HC3   -13.016477    7.945124   10.452806 H    1188 MOH     0.0372 ****
7434 O1    -12.090985    6.999213   12.007734 O    1188 MOH    -0.6497 ****
7435 HO1   -12.366958    7.683029   12.622209 H    1188 MOH     0.4215 ****
7436 HC1   -26.808798   -0.428457    4.751404 H    1189 MOH     0.0372 ****
7437 C1    -27.200241   -1.197596    4.086723 C    1189 MOH     0.1166 ****
7438 HC2   -26.700833   -1.163712    3.118694 H    1189 MOH     0.0372 ****
7439 HC3   -28.271803   -1.035114    3.962273 H    1189 MOH     0.0372 ****
7440 O1    -27.059368   -2.464391    4.671501 O    1189 MOH    -0.6497 ****
7441 HO1   -27.505660   -2.464799    5.520736 H    1189 MOH     0.4215 ****
7442 HC1   -10.588719   -2.860392    0.370877 H    1190 MOH     0.0372 ****
7443 C1    -10.605463   -3.867540   -0.047023 C    1190 MOH     0.1166 ****
7444 HC2   -10.103745   -4.526045    0.660791 H    1190 MOH     0.0372 ****
7445 HC3   -10.054093   -3.896118   -0.987475 H    1190 MOH     0.0372 ****
7446 O1    -11.948379   -4.303141   -0.196222 O    1190 MOH    -0.6497 ****
7447 HO1   -12.440282   -4.042270    0.586545 H    1190 MOH     0.4215 ****
7448 HC1   -16.454021    0.930602   -0.497450 H    1191 MOH     0.0372 ****
7449 C1    -17.517500    1.131460   -0.628972 C    1191 MOH     0.1166 ****
7450 HC2   -18.099469    0.210452   -0.602102 H    1191 MOH     0.0372 ****
7451 HC3   -17.682622    1.602170   -1.598415 H    1191 MOH     0.0372 ****
7452 O1    -17.967833    2.021850    0.350371 O    1191 MOH    -0.6497 ****
7453 HO1   -17.857559    2.916322    0.020152 H    1191 MOH     0.4215 ****
7454 HC1   -12.741081    3.858150   -3.294057 H    1192 MOH     0.0372 ****
7455 C1    -13.145226    4.203937   -4.245116 C    1192 MOH     0.1166 ****
7456 HC2   -14.078224    3.680562   -4.457248 H    1192 MOH     0.0372 ****
7457 HC3   -12.424116    4.059009   -5.049096 H    1192 MOH     0.0372 ****
7458 O1    -13.391755    5.569936   -4.090966 O    1192 MOH    -0.6497 ****
7459 HO1   -12.567299    6.025541   -3.902876 H    1192 MOH     0.4215 ****
7460 HC1   -16.973636   -7.397663    1.909542 H    1193 MOH     0.0372 ****
7461 C1    -17.159543   -6.811827    1.009395 C    1193 MOH     0.1166 ****
7462 HC2   -17.141645   -7.435630    0.115612 H    1193 MOH     0.0372 ****
7463 HC3   -16.411874   -6.026357    0.900500 H    1193 MOH     0.0372 ****
7464 O1    -18.402001   -6.223541    1.138795 O    1193 MOH    -0.6497 ****
7465 HO1   -18.700491   -6.112906    0.232992 H    1193 MOH     0.4215 ****
7466 HC1   -15.788913   -3.822633    3.328705 H    1194 MOH     0.0372 ****
7467 C1    -15.034894   -4.576259    3.101017 C    1194 MOH     0.1166 ****
7468 HC2   -15.521023   -5.465832    2.701501 H    1194 MOH     0.0372 ****
7469 HC3   -14.545878   -4.865707    4.030862 H    1194 MOH     0.0372 ****
7470 O1    -14.100741   -4.034105    2.156322 O    1194 MOH    -0.6497 ****
7471 HO1   -13.884235   -3.136367    2.415830 H    1194 MOH     0.4215 ****
7472 HC1   -17.543481    4.530127   -5.757617 H    1195 MOH     0.0372 ****
7473 C1    -17.780772    4.243537   -4.732312 C    1195 MOH     0.1166 ****
7474 HC2   -17.018669    3.580950   -4.322897 H    1195 MOH     0.0372 ****
7475 HC3   -18.733977    3.714855   -4.751404 H    1195 MOH     0.0372 ****
7476 O1    -17.882385    5.369894   -3.894391 O    1195 MOH    -0.6497 ****
7477 HO1   -17.108736    5.926336   -4.013892 H    1195 MOH     0.4215 ****
7478 HC1   -19.852304  -10.452177    0.594323 H    1196 MOH     0.0372 ****
7479 C1    -20.259336   -9.451560    0.449366 C    1196 MOH     0.1166 ****
7480 HC2   -21.304918   -9.497284    0.143896 H    1196 MOH     0.0372 ****
7481 HC3   -19.702771   -8.993914   -0.367342 H    1196 MOH     0.0372 ****
7482 O1    -20.104607   -8.627715    1.606193 O    1196 MOH    -0.6497 ****
7483 HO1   -19.821705   -7.747532    1.345978 H    1196 MOH     0.4215 ****
7484 HC1   -20.446398   -6.046770    2.816760 H    1197 MOH     0.0372 ****
7485 C1    -20.358063   -5.060850    3.272844 C    1197 MOH     0.1166 ****
7486 HC2   -20.959085   -5.029007    4.180769 H    1197 MOH     0.0372 ****
7487 HC3   -20.710247   -4.325595    2.549473 H    1197 MOH     0.0372 ****
7488 O1    -19.018033   -4.857134    3.580435 O    1197 MOH    -0.6497 ****
7489 HO1   -18.533059   -5.323762    2.896663 H    1197 MOH     0.4215 ****
7490 HC1   -18.482830  -10.884104    3.630640 H    1198 MOH     0.0372 ****
7491 C1    -17.406649  -10.875939    3.460934 C    1198 MOH     0.1166 ****
7492 HC2   -16.986338  -10.015759    3.980658 H    1198 MOH     0.0372 ****
7493 HC3   -17.202844  -10.815518    2.391789 H    1198 MOH     0.0372 ****
7494 O1    -16.813133  -12.020667    3.961566 O    1198 MOH    -0.6497 ****
7495 HO1   -17.275013  -12.281946    4.760596 H    1198 MOH     0.4215 ****
7496 HC1   -21.836657    3.783849   -3.770647 H    1199 MOH     0.0372 ****
7497 C1    -22.419204    2.911014   -3.475077 C    1199 MOH     0.1166 ****
7498 HC2   -22.083186    1.996130   -3.962273 H    1199 MOH     0.0372 ****
7499 HC3   -23.439382    3.091052   -3.812366 H    1199 MOH     0.0372 ****
7500 O1    -22.426132    2.764045   -2.072177 O    1199 MOH    -0.6497 ****
7501 HO1   -22.612616    3.625857   -1.691046 H    1199 MOH     0.4215 ****
7502 HC1   -22.667464    0.769344    0.500278 H    1200 MOH     0.0372 ****
7503 C1    -21.635739    0.485611    0.294510 C    1200 MOH     0.1166 ****
7504 HC2   -21.364962   -0.340275    0.951412 H    1200 MOH     0.0372 ****
7505 HC3   -20.987375    1.336401    0.505228 H    1200 MOH     0.0372 ****
7506 O1    -21.497753    0.166361   -1.067378 O    1200 MOH    -0.6497 ****
7507 HO1   -21.794511    0.959179   -1.519926 H    1200 MOH     0.4215 ****
7508 HC1   -17.173399    0.041845   -5.186275 H    1201 MOH     0.0372 ****
7509 C1    -17.158965    0.749340   -6.015711 C    1201 MOH     0.1166 ****
7510 HC2   -18.149698    1.180450   -6.157132 H    1201 MOH     0.0372 ****
7511 HC3   -16.820061    0.256176   -6.926465 H    1201 MOH     0.0372 ****
7512 O1    -16.281970    1.800987   -5.708827 O    1201 MOH    -0.6497 ****
7513 HO1   -16.085671    1.807928   -4.769082 H    1201 MOH     0.4215 ****
7514 HC1   -11.041939   -3.792831    8.143395 H    1202 MOH     0.0372 ****
7515 C1    -10.966884   -2.750981    7.833682 C    1202 MOH     0.1166 ****
7516 HC2    -9.928231   -2.526444    7.590438 H    1202 MOH     0.0372 ****
7517 HC3   -11.328883   -2.149631    8.668775 H    1202 MOH     0.0372 ****
7518 O1    -11.854849   -2.593397    6.757466 O    1202 MOH    -0.6497 ****
7519 HO1   -11.487654   -3.113914    6.039752 H    1202 MOH     0.4215 ****
7520 HC1   -21.317042   -7.705482    8.692110 H    1203 MOH     0.0372 ****
7521 C1    -20.324577   -7.684662    8.241683 C    1203 MOH     0.1166 ****
7522 HC2   -19.801498   -6.773451    8.531597 H    1203 MOH     0.0372 ****
7523 HC3   -20.384621   -7.740183    7.155567 H    1203 MOH     0.0372 ****
7524 O1    -19.589610   -8.749373    8.689989 O    1203 MOH    -0.6497 ****
7525 HO1   -20.036479   -9.545457    8.394418 H    1203 MOH     0.4215 ****
7526 HC1   -23.377028    4.524003    1.697410 H    1204 MOH     0.0372 ****
7527 C1    -23.616628    3.891219    2.551595 C    1204 MOH     0.1166 ****
7528 HC2   -24.662210    4.015734    2.832316 H    1204 MOH     0.0372 ****
7529 HC3   -22.984430    4.198630    3.385273 H    1204 MOH     0.0372 ****
7530 O1    -23.314674    2.541141    2.235518 O    1204 MOH    -0.6497 ****
7531 HO1   -23.777132    2.268023    1.440023 H    1204 MOH     0.4215 ****
7532 HC1   -25.970485   -3.414385   -7.402348 H    1205 MOH     0.0372 ****
7533 C1    -25.182402   -3.380092   -8.154709 C    1205 MOH     0.1166 ****
7534 HC2   -25.602713   -2.988582   -9.081726 H    1205 MOH     0.0372 ****
7535 HC3   -24.784608   -4.377851   -8.341385 H    1205 MOH     0.0372 ****
7536 O1    -24.176081   -2.479904   -7.804691 O    1205 MOH    -0.6497 ****
7537 HO1   -23.348738   -2.944899   -7.948234 H    1205 MOH     0.4215 ****
7538 HC1   -22.766769   -4.034922  -10.120466 H    1206 MOH     0.0372 ****
7539 C1    -22.336643   -4.604837   -9.295979 C    1206 MOH     0.1166 ****
7540 HC2   -21.561261   -5.248644   -9.711051 H    1206 MOH     0.0372 ****
7541 HC3   -23.082002   -5.253543   -8.835653 H    1206 MOH     0.0372 ****
7542 O1    -21.767375   -3.710365   -8.356235 O    1206 MOH    -0.6497 ****
7543 HO1   -21.352838   -4.249661   -7.679533 H    1206 MOH     0.4215 ****
7544 HC1   -12.419497    4.680362   -7.835097 H    1207 MOH     0.0372 ****
7545 C1    -11.675870    4.159438   -8.437552 C    1207 MOH     0.1166 ****
7546 HC2   -10.760192    4.748948   -8.485635 H    1207 MOH     0.0372 ****
7547 HC3   -12.011888    4.038188   -9.467806 H    1207 MOH     0.0372 ****
7548 O1    -11.337543    2.930610   -7.853482 O    1207 MOH    -0.6497 ****
7549 HO1   -12.041333    2.659125   -7.260219 H    1207 MOH     0.4215 ****
7550 HC1   -11.703583   -0.996738   -3.175263 H    1208 MOH     0.0372 ****
7551 C1    -11.742843   -2.066349   -3.380324 C    1208 MOH     0.1166 ****
7552 HC2   -12.521111   -2.494601   -2.748878 H    1208 MOH     0.0372 ****
7553 HC3   -10.774049   -2.502766   -3.136372 H    1208 MOH     0.0372 ****
7554 O1    -12.031518   -2.358246   -4.748576 O    1208 MOH    -0.6497 ****
7555 HO1   -11.601969   -3.172702   -5.020812 H    1208 MOH     0.4215 ****
7556 HC1    -7.542042   -2.316605   -5.421741 H    1209 MOH     0.0372 ****
7557 C1     -8.064544   -1.387432   -5.194053 C    1209 MOH     0.1166 ****
7558 HC2    -9.096846   -1.600537   -4.915453 H    1209 MOH     0.0372 ****
7559 HC3    -8.024129   -0.741175   -6.070158 H    1209 MOH     0.0372 ****
7560 O1     -7.376920   -0.824049   -4.127736 O    1209 MOH    -0.6497 ****
7561 HO1    -6.914462   -1.539300   -3.685087 H    1209 MOH     0.4215 ****
7562 HC1   -14.141733   -7.102500    4.218245 H    1210 MOH     0.0372 ****
7563 C1    -13.890586   -7.623016    5.142434 C    1210 MOH     0.1166 ****
7564 HC2   -14.557425   -8.476663    5.263349 H    1210 MOH     0.0372 ****
7565 HC3   -14.013561   -6.953081    5.993083 H    1210 MOH     0.0372 ****
7566 O1    -12.550556   -8.053718    5.045560 O    1210 MOH    -0.6497 ****
7567 HO1   -12.360607   -8.609344    5.804286 H    1210 MOH     0.4215 ****
7568 HC1   -12.668912   -0.172077   -5.802872 H    1211 MOH     0.0372 ****
7569 C1    -13.605952    0.083895   -6.295725 C    1211 MOH     0.1166 ****
7570 HC2   -14.444264   -0.248011   -5.682664 H    1211 MOH     0.0372 ****
7571 HC3   -13.624427   -0.414984   -7.264462 H    1211 MOH     0.0372 ****
7572 O1    -13.636551    1.467448   -6.512807 O    1211 MOH    -0.6497 ****
7573 HO1   -14.552806    1.708723   -6.664835 H    1211 MOH     0.4215 ****
7574 HC1   -22.615503   -0.874264    3.439014 H    1212 MOH     0.0372 ****
7575 C1    -23.625289   -0.474997    3.530937 C    1212 MOH     0.1166 ****
7576 HC2   -24.237857   -1.216376    4.044297 H    1212 MOH     0.0372 ****
7577 HC3   -24.026547   -0.283120    2.535331 H    1212 MOH     0.0372 ****
7578 O1    -23.557161    0.713822    4.293199 O    1212 MOH    -0.6497 ****
7579 HO1   -23.222875    1.407028    3.719028 H    1212 MOH     0.4215 ****
7580 HC1   -15.998491   -4.882037   -7.510535 H    1213 MOH     0.0372 ****
7581 C1    -15.693073   -5.862241   -7.877523 C    1213 MOH     0.1166 ****
7582 HC2   -14.743909   -5.782633   -8.407146 H    1213 MOH     0.0372 ****
7583 HC3   -16.459794   -6.254568   -8.544325 H    1213 MOH     0.0372 ****
7584 O1    -15.539498   -6.782841   -6.803428 O    1213 MOH    -0.6497 ****
7585 HO1   -14.690216   -7.216809   -6.911615 H    1213 MOH     0.4215 ****
7586 HC1   -10.157439   -7.530344   -0.837568 H    1214 MOH     0.0372 ****
7587 C1     -9.286217   -7.026974   -1.256882 C    1214 MOH     0.1166 ****
7588 HC2    -9.584130   -6.077796   -1.700238 H    1214 MOH     0.0372 ****
7589 HC3    -8.847431   -7.638530   -2.046014 H    1214 MOH     0.0372 ****
7590 O1     -8.317423   -6.751814   -0.271175 O    1214 MOH    -0.6497 ****
7591 HO1    -7.887297   -7.589948   -0.088035 H    1214 MOH     0.4215 ****
7592 HC1   -26.871729    6.361937    1.862873 H    1215 MOH     0.0372 ****
7593 C1    -26.009168    6.824891    1.383454 C    1215 MOH     0.1166 ****
7594 HC2   -25.222239    6.939609    2.129452 H    1215 MOH     0.0372 ****
7595 HC3   -26.326133    7.816934    1.061013 H    1215 MOH     0.0372 ****
7596 O1    -25.626385    6.037380    0.224506 O    1215 MOH    -0.6497 ****
7597 HO1   -26.320360    6.083512   -0.436639 H    1215 MOH     0.4215 ****
7598 HC1   -20.185436    1.799354    8.123596 H    1216 MOH     0.0372 ****
7599 C1    -19.577486    2.670148    7.875402 C    1216 MOH     0.1166 ****
7600 HC2   -18.527863    2.400704    7.760850 H    1216 MOH     0.0372 ****
7601 HC3   -19.634066    3.392339    8.690696 H    1216 MOH     0.0372 ****
7602 O1    -19.972393    3.232306    6.665542 O    1216 MOH    -0.6497 ****
7603 HO1   -19.690646    2.633814    5.969749 H    1216 MOH     0.4215 ****
7604 HC1   -18.712615   -1.206578  -12.585440 H    1217 MOH     0.0372 ****
7605 C1    -17.788854   -1.018375  -13.133448 C    1217 MOH     0.1166 ****
7606 HC2   -17.198225   -1.933260  -13.095971 H    1217 MOH     0.0372 ****
7607 HC3   -17.266353   -0.194939  -12.646251 H    1217 MOH     0.0372 ****
7608 O1    -18.061941   -0.666057  -14.487557 O    1217 MOH    -0.6497 ****
7609 HO1   -17.280209   -0.243928  -14.851010 H    1217 MOH     0.4215 ****
7610 HC1   -21.125939   -5.944707   -1.674783 H    1218 MOH     0.0372 ****
7611 C1    -20.269151   -6.202720   -2.298451 C    1218 MOH     0.1166 ****
7612 HC2   -20.083245   -5.409494   -3.021821 H    1218 MOH     0.0372 ****
7613 HC3   -20.515103   -7.106582   -2.855651 H    1218 MOH     0.0372 ****
7614 O1    -19.105791   -6.393372   -1.497299 O    1218 MOH    -0.6497 ****
7615 HO1   -18.409506   -6.741200   -2.058742 H    1218 MOH     0.4215 ****
7616 HC1   -15.071267   -6.284778   -2.491491 H    1219 MOH     0.0372 ****
7617 C1    -15.569520   -7.060450   -3.071318 C    1219 MOH     0.1166 ****
7618 HC2   -14.842636   -7.805911   -3.393759 H    1219 MOH     0.0372 ****
7619 HC3   -16.031978   -6.586474   -3.937524 H    1219 MOH     0.0372 ****
7620 O1    -16.544665   -7.691194   -2.274409 O    1219 MOH    -0.6497 ****
7621 HO1   -16.072970   -8.060250   -1.524876 H    1219 MOH     0.4215 ****
7622 HC1   -15.746767    5.413985   -6.785043 H    1220 MOH     0.0372 ****
7623 C1    -15.153828    5.075547   -7.634279 C    1220 MOH     0.1166 ****
7624 HC2   -14.786633    4.079829   -7.386084 H    1220 MOH     0.0372 ****
7625 HC3   -14.306855    5.745482   -7.786306 H    1220 MOH     0.0372 ****
7626 O1    -15.958077    5.024516   -8.804540 O    1220 MOH    -0.6497 ****
7627 HO1   -15.551045    4.374176   -9.382247 H    1220 MOH     0.4215 ****
7628 HC1   -19.990291    5.734868   -1.122532 H    1221 MOH     0.0372 ****
7629 C1    -19.809003    4.696692   -0.843225 C    1221 MOH     0.1166 ****
7630 HC2   -20.468337    4.059417   -1.432245 H    1221 MOH     0.0372 ****
7631 HC3   -20.033592    4.541966    0.212485 H    1221 MOH     0.0372 ****
7632 O1    -18.478788    4.301100   -1.084348 O    1221 MOH    -0.6497 ****
7633 HO1   -18.299232    4.409286   -2.021265 H    1221 MOH     0.4215 ****
7634 HC1   -24.269034   11.419317    0.206828 H    1222 MOH     0.0372 ****
7635 C1    -25.176629   11.355630    0.806455 C    1222 MOH     0.1166 ****
7636 HC2   -25.787465   10.508923    0.493914 H    1222 MOH     0.0372 ****
7637 HC3   -25.725689   12.287661    0.674226 H    1222 MOH     0.0372 ****
7638 O1    -24.804815   11.172327    2.130866 O    1222 MOH    -0.6497 ****
7639 HO1   -24.277694   10.369711    2.129452 H    1222 MOH     0.4215 ****
7640 HC1   -12.479542   -3.993689    4.378759 H    1223 MOH     0.0372 ****
7641 C1    -11.656817   -4.684445    4.193497 C    1223 MOH     0.1166 ****
7642 HC2   -11.381421   -4.563195    3.146272 H    1223 MOH     0.0372 ****
7643 HC3   -11.965122   -5.724253    4.300270 H    1223 MOH     0.0372 ****
7644 O1    -10.566780   -4.373768    5.078087 O    1223 MOH    -0.6497 ****
7645 HO1    -9.955944   -5.114330    5.090815 H    1223 MOH     0.4215 ****
7646 HC1   -16.732304   -2.652185   -4.816458 H    1224 MOH     0.0372 ****
7647 C1    -15.805079   -2.828957   -4.272693 C    1224 MOH     0.1166 ****
7648 HC2   -15.870897   -3.753639   -3.699229 H    1224 MOH     0.0372 ****
7649 HC3   -15.581645   -1.992456   -3.610134 H    1224 MOH     0.0372 ****
7650 O1    -14.801644   -2.931019   -5.203245 O    1224 MOH    -0.6497 ****
7651 HO1   -13.991622   -2.590131   -4.816458 H    1224 MOH     0.4215 ****
7652 HC1   -18.829240   -2.508073  -10.089353 H    1225 MOH     0.0372 ****
7653 C1    -18.549225   -3.416426   -9.555488 C    1225 MOH     0.1166 ****
7654 HC2   -17.740934   -3.912039  -10.092889 H    1225 MOH     0.0372 ****
7655 HC3   -19.380032   -4.122287   -9.532153 H    1225 MOH     0.0372 ****
7656 O1    -18.111593   -3.155147   -8.236026 O    1225 MOH    -0.6497 ****
7657 HO1   -18.459158   -3.859784   -7.684483 H    1225 MOH     0.4215 ****
7658 HC1    -7.645388   -3.035938    3.313856 H    1226 MOH     0.0372 ****
7659 C1     -8.476772   -2.352531    3.144150 C    1226 MOH     0.1166 ****
7660 HC2    -9.398801   -2.812627    3.501239 H    1226 MOH     0.0372 ****
7661 HC3    -8.547209   -2.164328    2.072883 H    1226 MOH     0.0372 ****
7662 O1     -8.148837   -1.131868    3.796103 O    1226 MOH    -0.6497 ****
7663 HO1    -7.535691   -1.329052    4.508159 H    1226 MOH     0.4215 ****
7664 HC1   -15.138817   -0.806494   11.797016 H    1227 MOH     0.0372 ****
7665 C1    -16.030246   -0.179833   11.765196 C    1227 MOH     0.1166 ****
7666 HC2   -16.918788   -0.810577   11.724891 H    1227 MOH     0.0372 ****
7667 HC3   -16.021008    0.438255   10.867170 H    1227 MOH     0.0372 ****
7668 O1    -16.019854    0.667690   12.886667 O    1227 MOH    -0.6497 ****
7669 HO1   -15.264102    1.247811   12.769995 H    1227 MOH     0.4215 ****
7670 HC1   -14.395190  -12.995564    1.751150 H    1228 MOH     0.0372 ****
7671 C1    -13.813798  -12.238263    2.277944 C    1228 MOH     0.1166 ****
7672 HC2   -12.760134  -12.482396    2.140766 H    1228 MOH     0.0372 ****
7673 HC3   -14.043583  -12.227649    3.342847 H    1228 MOH     0.0372 ****
7674 O1    -13.941970  -10.978001    1.725694 O    1228 MOH    -0.6497 ****
7675 HO1   -13.143494  -10.501575    1.966817 H    1228 MOH     0.4215 ****
7676 HC1   -19.239736   -1.638504    6.833126 H    1229 MOH     0.0372 ****
7677 C1    -18.894480   -2.481537    6.235621 C    1229 MOH     0.1166 ****
7678 HC2   -18.154317   -3.013485    6.834540 H    1229 MOH     0.0372 ****
7679 HC3   -18.452807   -2.095743    5.317089 H    1229 MOH     0.0372 ****
7680 O1    -19.946990   -3.399279    5.901867 O    1229 MOH    -0.6497 ****
7681 HO1   -19.668130   -3.912447    5.140313 H    1229 MOH     0.4215 ****
7682 HC1   -14.174642  -13.318080   -2.911512 H    1230 MOH     0.0372 ****
7683 C1    -14.207551  -12.232956   -3.010507 C    1230 MOH     0.1166 ****
7684 HC2   -13.762414  -11.763879   -2.132988 H    1230 MOH     0.0372 ****
7685 HC3   -15.245049  -11.907174   -3.085461 H    1230 MOH     0.0372 ****
7686 O1    -13.521659  -11.855735   -4.175819 O    1230 MOH    -0.6497 ****
7687 HO1   -13.420045  -10.902475   -4.135514 H    1230 MOH     0.4215 ****
7688 HC1    -5.741287   -4.501142   -1.728523 H    1231 MOH     0.0372 ****
7689 C1     -6.647149   -4.176584   -2.239761 C    1231 MOH     0.1166 ****
7690 HC2    -7.532804   -4.569319   -1.740543 H    1231 MOH     0.0372 ****
7691 HC3    -6.639644   -4.524820   -3.272844 H    1231 MOH     0.0372 ****
7692 O1     -6.740102   -2.784457   -2.225619 O    1231 MOH    -0.6497 ****
7693 HO1    -6.469903   -2.499092   -1.349513 H    1231 MOH     0.4215 ****
7694 HC1   -18.720698   -0.974285   -4.621297 H    1232 MOH     0.0372 ****
7695 C1    -19.351164   -1.287819   -3.789739 C    1232 MOH     0.1166 ****
7696 HC2   -20.327464   -1.600537   -4.160263 H    1232 MOH     0.0372 ****
7697 HC3   -19.521483   -0.460708   -3.099603 H    1232 MOH     0.0372 ****
7698 O1    -18.748988   -2.341916   -3.093946 O    1232 MOH    -0.6497 ****
7699 HO1   -19.399662   -2.696276   -2.484420 H    1232 MOH     0.4215 ****
7700 HC1   -12.282088    8.472989    6.290068 H    1233 MOH     0.0372 ****
7701 C1    -12.593857    8.054126    7.247491 C    1233 MOH     0.1166 ****
7702 HC2   -13.120978    8.800404    7.840046 H    1233 MOH     0.0372 ****
7703 HC3   -11.701273    7.720588    7.775700 H    1233 MOH     0.0372 ****
7704 O1    -13.408498    6.940017    7.020510 O    1233 MOH    -0.6497 ****
7705 HO1   -14.094390    7.181292    6.394720 H    1233 MOH     0.4215 ****
7706 HC1   -26.720463   -6.309681   -1.424467 H    1234 MOH     0.0372 ****
7707 C1    -26.076718   -5.525436   -1.821154 C    1234 MOH     0.1166 ****
7708 HC2   -26.042654   -4.724045   -1.083641 H    1234 MOH     0.0372 ****
7709 HC3   -26.475667   -5.085345   -2.736150 H    1234 MOH     0.0372 ****
7710 O1    -24.764978   -5.990023   -2.051671 O    1234 MOH    -0.6497 ****
7711 HO1   -24.322728   -5.202920   -2.376940 H    1234 MOH     0.4215 ****
7712 HC1   -19.950454    0.830989    2.753827 H    1235 MOH     0.0372 ****
7713 C1    -19.787641    0.606861    3.808123 C    1235 MOH     0.1166 ****
7714 HC2   -19.220106   -0.319863    3.900047 H    1235 MOH     0.0372 ****
7715 HC3   -20.771446    0.489286    4.262086 H    1235 MOH     0.0372 ****
7716 O1    -19.094821    1.683412    4.399972 O    1235 MOH    -0.6497 ****
7717 HO1   -18.256508    1.774043    3.941767 H    1235 MOH     0.4215 ****
7718 HC1   -22.015059   -5.235172    7.513363 H    1236 MOH     0.0372 ****
7719 C1    -22.408234   -4.800387    8.431895 C    1236 MOH     0.1166 ****
7720 HC2   -22.592409   -3.735676    8.290473 H    1236 MOH     0.0372 ****
7721 HC3   -21.709063   -4.944499    9.255674 H    1236 MOH     0.0372 ****
7722 O1    -23.572750   -5.461341    8.760699 O    1236 MOH    -0.6497 ****
7723 HO1   -23.997102   -5.011860    9.495383 H    1236 MOH     0.4215 ****
7724 HC1   -20.228159    0.726070   -6.582104 H    1237 MOH     0.0372 ****
7725 C1    -20.361527   -0.296592   -6.934950 C    1237 MOH     0.1166 ****
7726 HC2   -21.360343   -0.374160   -7.363457 H    1237 MOH     0.0372 ****
7727 HC3   -20.288204   -1.013476   -6.117535 H    1237 MOH     0.0372 ****
7728 O1    -19.441231   -0.573793   -7.946820 O    1237 MOH    -0.6497 ****
7729 HO1   -19.325184   -1.521746   -8.038744 H    1237 MOH     0.4215 ****
7730 HC1   -18.041157   -8.548515   -7.624379 H    1238 MOH     0.0372 ****
7731 C1    -18.777856   -8.202729   -6.899595 C    1238 MOH     0.1166 ****
7732 HC2   -19.048633   -9.010652   -6.218651 H    1238 MOH     0.0372 ****
7733 HC3   -19.686605   -7.903075   -7.420025 H    1238 MOH     0.0372 ****
7734 O1    -18.337915   -7.121279   -6.105514 O    1238 MOH    -0.6497 ****
7735 HO1   -17.390483   -7.189865   -5.969749 H    1238 MOH     0.4215 ****
7736 HC1   -17.092570    8.006770   -7.272240 H    1239 MOH     0.0372 ****
7737 C1    -17.940120    7.342141   -7.102534 C    1239 MOH     0.1166 ****
7738 HC2   -18.805568    7.985949   -6.946264 H    1239 MOH     0.0372 ****
7739 HC3   -17.707448    6.740383   -6.224308 H    1239 MOH     0.0372 ****
7740 O1    -18.073488    6.640363   -8.318051 O    1239 MOH    -0.6497 ****
7741 HO1   -17.227670    6.234564   -8.523112 H    1239 MOH     0.4215 ****
7742 HC1   -19.203940  -10.799188   -1.862166 H    1240 MOH     0.0372 ****
7743 C1    -18.168751  -10.495043   -2.018436 C    1240 MOH     0.1166 ****
7744 HC2   -17.579854  -11.397680   -2.186021 H    1240 MOH     0.0372 ****
7745 HC3   -17.795783   -9.938192   -1.160009 H    1240 MOH     0.0372 ****
7746 O1    -18.171060   -9.763462   -3.195062 O    1240 MOH    -0.6497 ****
7747 HO1   -17.533666   -9.054335   -3.085461 H    1240 MOH     0.4215 ****
7748 HC1    -6.141390   -5.607086    2.708573 H    1241 MOH     0.0372 ****
7749 C1     -5.757452   -5.010227    1.881258 C    1241 MOH     0.1166 ****
7750 HC2    -5.069828   -5.627499    1.302844 H    1241 MOH     0.0372 ****
7751 HC3    -5.256312   -4.148415    2.323199 H    1241 MOH     0.0372 ****
7752 O1     -6.822664   -4.570544    1.094248 O    1241 MOH    -0.6497 ****
7753 HO1    -7.352094   -5.326620    0.832618 H    1241 MOH     0.4215 ****
7754 HC1   -27.726207    2.696684   -1.173444 H    1242 MOH     0.0372 ****
7755 C1    -27.892484    3.767111   -1.054650 C    1242 MOH     0.1166 ****
7756 HC2   -27.539146    4.087994   -0.074600 H    1242 MOH     0.0372 ****
7757 HC3   -28.959428    3.980217   -1.126775 H    1242 MOH     0.0372 ****
7758 O1    -27.205437    4.481546   -2.064399 O    1242 MOH    -0.6497 ****
7759 HO1   -27.296081    3.951639   -2.859187 H    1242 MOH     0.4215 ****
7760 HC1    -6.249355   -0.150439    1.444266 H    1243 MOH     0.0372 ****
7761 C1     -5.609073   -1.025724    1.553160 C    1243 MOH     0.1166 ****
7762 HC2    -5.759184   -1.426624    2.555837 H    1243 MOH     0.0372 ****
7763 HC3    -4.570420   -0.713006    1.447094 H    1243 MOH     0.0372 ****
7764 O1     -5.988392   -1.967553    0.549775 O    1243 MOH    -0.6497 ****
7765 HO1    -6.059407   -2.840796    0.942220 H    1243 MOH     0.4215 ****
7766 HC1   -25.248220    2.247611   -1.497299 H    1244 MOH     0.0372 ****
7767 C1    -24.980907    1.242912   -1.168494 C    1244 MOH     0.1166 ****
7768 HC2   -24.036362    0.953464   -1.628821 H    1244 MOH     0.0372 ****
7769 HC3   -25.743587    0.529294   -1.478207 H    1244 MOH     0.0372 ****
7770 O1    -24.813475    1.250669    0.260569 O    1244 MOH    -0.6497 ****
7771 HO1   -25.641973    1.438463    0.707460 H    1244 MOH     0.4215 ****
7772 HC1    -8.113619    2.063083    5.865097 H    1245 MOH     0.0372 ****
7773 C1     -7.255099    2.424791    5.299412 C    1245 MOH     0.1166 ****
7774 HC2    -7.603241    2.944083    4.407043 H    1245 MOH     0.0372 ****
7775 HC3    -6.625787    1.584208    5.005962 H    1245 MOH     0.0372 ****
7776 O1     -6.505698    3.314364    6.094907 O    1245 MOH    -0.6497 ****
7777 HO1    -6.338267    2.895909    6.942728 H    1245 MOH     0.4215 ****
7778 HC1   -14.088617    1.131868   -9.472756 H    1246 MOH     0.0372 ****
7779 C1    -15.012954    1.647078   -9.734386 C    1246 MOH     0.1166 ****
7780 HC2   -15.725982    1.600129   -8.910606 H    1246 MOH     0.0372 ****
7781 HC3   -15.448854    1.200862  -10.627462 H    1246 MOH     0.0372 ****
7782 O1    -14.775086    2.996338  -10.013693 O    1246 MOH    -0.6497 ****
7783 HO1   -14.270482    3.026549  -10.829694 H    1246 MOH     0.4215 ****
7784 HC1   -22.366665    8.325203    0.579474 H    1247 MOH     0.0372 ****
7785 C1    -22.737324    7.928386    1.524168 C    1247 MOH     0.1166 ****
7786 HC2   -21.882845    7.805503    2.189556 H    1247 MOH     0.0372 ****
7787 HC3   -23.209019    6.952673    1.408203 H    1247 MOH     0.0372 ****
7788 O1    -23.592380    8.863683    2.086318 O    1247 MOH    -0.6497 ****
7789 HO1   -23.407627    8.865316    3.028185 H    1247 MOH     0.4215 ****
7790 HC1   -22.482712   -4.729352   12.731104 H    1248 MOH     0.0372 ****
7791 C1    -21.588397   -5.171893   13.170924 C    1248 MOH     0.1166 ****
7792 HC2   -21.522579   -4.898775   14.223806 H    1248 MOH     0.0372 ****
7793 HC3   -20.698123   -4.802020   12.661807 H    1248 MOH     0.0372 ****
7794 O1    -21.639781   -6.584432   13.054959 O    1248 MOH    -0.6497 ****
7795 HO1   -20.734496   -6.892660   13.143347 H    1248 MOH     0.4215 ****
7796 HC1   -23.829093   -9.087811   -8.933234 H    1249 MOH     0.0372 ****
7797 C1    -23.315251   -8.778767   -8.023187 C    1249 MOH     0.1166 ****
7798 HC2   -22.232142   -8.804895   -8.139153 H    1249 MOH     0.0372 ****
7799 HC3   -23.618360   -9.418084   -7.193044 H    1249 MOH     0.0372 ****
7800 O1    -23.754615   -7.521362   -7.740345 O    1249 MOH    -0.6497 ****
7801 HO1   -24.086591   -7.159246   -8.565538 H    1249 MOH     0.4215 ****
7802 HC1   -23.078538    3.650352    6.317645 H    1250 MOH     0.0372 ****
7803 C1    -23.144933    3.389890    7.374063 C    1250 MOH     0.1166 ****
7804 HC2   -23.036969    2.311706    7.497807 H    1250 MOH     0.0372 ****
7805 HC3   -24.128738    3.704649    7.722666 H    1250 MOH     0.0372 ****
7806 O1    -22.161128    4.108815    8.097433 O    1250 MOH    -0.6497 ****
7807 HO1   -21.338404    3.999813    7.614479 H    1250 MOH     0.4215 ****
7808 HC1   -15.531993    6.211294   11.166277 H    1251 MOH     0.0372 ****
7809 C1    -15.094361    5.307840   10.741305 C    1251 MOH     0.1166 ****
7810 HC2   -14.850719    5.502983    9.697616 H    1251 MOH     0.0372 ****
7811 HC3   -15.799883    4.481546   10.834643 H    1251 MOH     0.0372 ****
7812 O1    -13.958136    5.010227   11.488717 O    1251 MOH    -0.6497 ****
7813 HO1   -13.330556    5.736093   11.440634 H    1251 MOH     0.4215 ****
7814 HC1   -18.751875   -0.986532   10.533416 H    1252 MOH     0.0372 ****
7815 C1    -19.162371   -1.943058   10.856564 C    1252 MOH     0.1166 ****
7816 HC2   -18.383525   -2.705665   10.877777 H    1252 MOH     0.0372 ****
7817 HC3   -19.947567   -2.221891   10.154407 H    1252 MOH     0.0372 ****
7818 O1    -19.758196   -1.798538   12.112385 O    1252 MOH    -0.6497 ****
7819 HO1   -19.137545   -1.349465   12.690799 H    1252 MOH     0.4215 ****
7820 HC1   -21.977531   -5.878980   -5.199710 H    1253 MOH     0.0372 ****
7821 C1    -22.859722   -5.295593   -4.938787 C    1253 MOH     0.1166 ****
7822 HC2   -22.555458   -4.297017   -4.627661 H    1253 MOH     0.0372 ****
7823 HC3   -23.394926   -5.785491   -4.125615 H    1253 MOH     0.0372 ****
7824 O1    -23.680714   -5.240479   -6.106221 O    1253 MOH    -0.6497 ****
7825 HO1   -23.771358   -6.129236   -6.459067 H    1253 MOH     0.4215 ****
7826 HC1   -14.440800  -14.871465    0.251376 H    1254 MOH     0.0372 ****
7827 C1    -13.603065  -14.643254   -0.408354 C    1254 MOH     0.1166 ****
7828 HC2   -13.245685  -13.641821   -0.172888 H    1254 MOH     0.0372 ****
7829 HC3   -13.953517  -14.688161   -1.439316 H    1254 MOH     0.0372 ****
7830 O1    -12.522265  -15.585083   -0.204000 O    1254 MOH    -0.6497 ****
7831 HO1   -11.689149  -15.196838   -0.481893 H    1254 MOH     0.4215 ****
7832 HC1   -20.247212   -4.016143   -0.133290 H    1255 MOH     0.0372 ****
7833 C1    -20.558981   -2.972660   -0.168645 C    1255 MOH     0.1166 ****
7834 HC2   -19.753000   -2.315380    0.159452 H    1255 MOH     0.0372 ****
7835 HC3   -21.401913   -2.849369    0.510177 H    1255 MOH     0.0372 ****
7836 O1    -21.012201   -2.626465   -1.462651 O    1255 MOH    -0.6497 ****
7837 HO1   -21.223511   -1.690760   -1.432952 H    1255 MOH     0.4215 ****
7838 HC1   -24.521913   -4.845295    0.683419 H    1256 MOH     0.0372 ****
7839 C1    -23.750574   -5.138417    1.396182 C    1256 MOH     0.1166 ****
7840 HC2   -22.852794   -5.394797    0.833325 H    1256 MOH     0.0372 ****
7841 HC3   -24.080818   -6.026765    1.934998 H    1256 MOH     0.0372 ****
7842 O1    -23.490189   -4.061050    2.304814 O    1256 MOH    -0.6497 ****
7843 HO1   -24.156451   -4.085953    2.995658 H    1256 MOH     0.4215 ****
7844 HC1   -24.651240   -4.234555    6.566547 H    1257 MOH     0.0372 ****
7845 C1    -24.167998   -4.385199    5.601346 C    1257 MOH     0.1166 ****
7846 HC2   -23.712468   -5.374793    5.581547 H    1257 MOH     0.0372 ****
7847 HC3   -23.407627   -3.616059    5.462753 H    1257 MOH     0.0372 ****
7848 O1    -25.199145   -4.335801    4.614932 O    1257 MOH    -0.6497 ****
7849 HO1   -25.711832   -3.534818    4.745040 H    1257 MOH     0.4215 ****
7850 HC1   -15.216182   -0.199429   -2.217133 H    1258 MOH     0.0372 ****
7851 C1    -14.434450    0.473772   -2.568566 C    1258 MOH     0.1166 ****
7852 HC2   -13.874997    0.038988   -3.396588 H    1258 MOH     0.0372 ****
7853 HC3   -13.749135    0.678713   -1.746907 H    1258 MOH     0.0372 ****
7854 O1    -15.008336    1.673206   -3.014043 O    1258 MOH    -0.6497 ****
7855 HO1   -14.813191    2.316605   -2.328149 H    1258 MOH     0.4215 ****
7856 HC1   -10.316326   22.541470   -1.945605 H    1259 MOH     0.0372 ****
7857 C1    -11.352669   22.680275   -1.638720 C    1259 MOH     0.1166 ****
7858 HC2   -11.916163   23.044432   -2.497148 H    1259 MOH     0.0372 ****
7859 HC3   -11.422529   23.430227   -0.850296 H    1259 MOH     0.0372 ****
7860 O1    -11.878058   21.437567   -1.221527 O    1259 MOH    -0.6497 ****
7861 HO1   -12.640738   21.589843   -0.659377 H    1259 MOH     0.4215 ****
7862 HC1    -1.456886    7.606931   -0.124097 H    1260 MOH     0.0372 ****
7863 C1     -2.305591    8.041716    0.404111 C    1260 MOH     0.1166 ****
7864 HC2    -2.441845    9.068868    0.066114 H    1260 MOH     0.0372 ****
7865 HC3    -2.141046    8.029468    1.481742 H    1260 MOH     0.0372 ****
7866 O1     -3.471261    7.343611    0.070357 O    1260 MOH    -0.6497 ****
7867 HO1    -3.444125    6.543036    0.599980 H    1260 MOH     0.4215 ****
7868 HC1     6.619667   16.377329   -3.743777 H    1261 MOH     0.0372 ****
7869 C1      6.425100   17.118708   -2.968788 C    1261 MOH     0.1166 ****
7870 HC2     5.361044   17.160758   -2.736150 H    1261 MOH     0.0372 ****
7871 HC3     6.726477   18.107077   -3.315977 H    1261 MOH     0.0372 ****
7872 O1      7.094827   16.788435   -1.757514 O    1261 MOH    -0.6497 ****
7873 HO1     6.877165   15.893963   -1.485278 H    1261 MOH     0.4215 ****
7874 HC1    -9.266703   21.090148    2.723422 H    1262 MOH     0.0372 ****
7875 C1     -8.662794   21.641691    3.443963 C    1262 MOH     0.1166 ****
7876 HC2    -7.851040   21.006457    3.797517 H    1262 MOH     0.0372 ****
7877 HC3    -9.311159   21.927465    4.272692 H    1262 MOH     0.0372 ****
7878 O1     -8.158190   22.765599    2.788475 O    1262 MOH    -0.6497 ****
7879 HO1    -7.345281   23.027286    3.227589 H    1262 MOH     0.4215 ****
7880 HC1    -1.866227   22.573722  -10.857271 H    1263 MOH     0.0372 ****
7881 C1     -1.328714   22.916242  -11.741862 C    1263 MOH     0.1166 ****
7882 HC2    -1.656649   22.342245  -12.608775 H    1263 MOH     0.0372 ****
7883 HC3    -0.269276   22.731714  -11.563671 H    1263 MOH     0.0372 ****
7884 O1     -1.589099   24.296938  -12.010562 O    1263 MOH    -0.6497 ****
7885 HO1    -1.329868   24.501878  -12.911416 H    1263 MOH     0.4215 ****
7886 HC1   -11.204868   15.768631    7.108191 H    1264 MOH     0.0372 ****
7887 C1    -12.225046   15.475917    7.356385 C    1264 MOH     0.1166 ****
7888 HC2   -12.386126   15.533480    8.431895 H    1264 MOH     0.0372 ****
7889 HC3   -12.433469   14.453663    7.039601 H    1264 MOH     0.0372 ****
7890 O1    -13.111278   16.368348    6.755344 O    1264 MOH    -0.6497 ****
7891 HO1   -12.659790   16.744753    5.995912 H    1264 MOH     0.4215 ****
7892 HC1     1.502612   20.741503   -2.215012 H    1265 MOH     0.0372 ****
7893 C1      1.551109   19.653930   -2.265924 C    1265 MOH     0.1166 ****
7894 HC2     1.172945   19.299162   -3.224053 H    1265 MOH     0.0372 ****
7895 HC3     0.944314   19.207306   -1.478207 H    1265 MOH     0.0372 ****
7896 O1      2.887675   19.219554   -2.192385 O    1265 MOH    -0.6497 ****
7897 HO1     2.855344   18.260170   -2.171171 H    1265 MOH     0.4215 ****
7898 HC1    -7.407635   19.716800   -7.788428 H    1266 MOH     0.0372 ****
7899 C1     -7.362024   19.262012   -8.778377 C    1266 MOH     0.1166 ****
7900 HC2    -6.444615   18.683116   -8.887272 H    1266 MOH     0.0372 ****
7901 HC3    -7.372416   20.039725   -9.541346 H    1266 MOH     0.0372 ****
7902 O1     -8.465341   18.425511   -8.995459 O    1266 MOH    -0.6497 ****
7903 HO1    -8.206110   17.537979   -8.738072 H    1266 MOH     0.4215 ****
7904 HC1   -16.605979   18.555334    3.312441 H    1267 MOH     0.0372 ****
7905 C1    -15.565594   18.582687    2.986465 C    1267 MOH     0.1166 ****
7906 HC2   -14.981316   17.942961    3.649024 H    1267 MOH     0.0372 ****
7907 HC3   -15.224380   19.616371    3.040205 H    1267 MOH     0.0372 ****
7908 O1    -15.498622   18.100545    1.663468 O    1267 MOH    -0.6497 ****
7909 HO1   -16.093292   17.347735    1.619628 H    1267 MOH     0.4215 ****
7910 HC1   -13.725579   13.873134   -0.847468 H    1268 MOH     0.0372 ****
7911 C1    -12.811056   14.179320   -1.355170 C    1268 MOH     0.1166 ****
7912 HC2   -12.215808   14.833742   -0.718067 H    1268 MOH     0.0372 ****
7913 HC3   -13.086452   14.725557   -2.257439 H    1268 MOH     0.0372 ****
7914 O1    -12.108998   13.039899   -1.753271 O    1268 MOH    -0.6497 ****
7915 HO1   -11.174268   13.238716   -1.663469 H    1268 MOH     0.4215 ****
7916 HC1   -19.383034   17.473068    2.012072 H    1269 MOH     0.0372 ****
7917 C1    -19.817779   16.587577    2.475227 C    1269 MOH     0.1166 ****
7918 HC2   -20.230007   15.912743    1.724987 H    1269 MOH     0.0372 ****
7919 HC3   -20.639926   16.873759    3.132129 H    1269 MOH     0.0372 ****
7920 O1    -18.912494   15.884982    3.270722 O    1269 MOH    -0.6497 ****
7921 HO1   -19.439037   15.167281    3.631347 H    1269 MOH     0.4215 ****
7922 HC1     6.298660   18.407140    0.037830 H    1270 MOH     0.0372 ****
7923 C1      6.381222   19.346927    0.583717 C    1270 MOH     0.1166 ****
7924 HC2     5.554456   20.002574    0.310773 H    1270 MOH     0.0372 ****
7925 HC3     7.338468   19.809064    0.339058 H    1270 MOH     0.0372 ****
7926 O1      6.340230   18.988894    1.925098 O    1270 MOH    -0.6497 ****
7927 HO1     6.564242   19.731905    2.489369 H    1270 MOH     0.4215 ****
7928 HC1    -5.793941   23.031368   -0.218850 H    1271 MOH     0.0372 ****
7929 C1     -6.459626   23.890323   -0.133997 C    1271 MOH     0.1166 ****
7930 HC2    -7.501743   23.570256   -0.141068 H    1271 MOH     0.0372 ****
7931 HC3    -6.324526   24.514942   -1.016466 H    1271 MOH     0.0372 ****
7932 O1     -6.233882   24.687223    1.069499 O    1271 MOH    -0.6497 ****
7933 HO1    -6.306628   24.120166    1.839538 H    1271 MOH     0.4215 ****
7934 HC1    -5.719463   12.377313    8.731001 H    1272 MOH     0.0372 ****
7935 C1     -5.419818   11.330156    8.716152 C    1272 MOH     0.1166 ****
7936 HC2    -4.785887   11.141545    7.849239 H    1272 MOH     0.0372 ****
7937 HC3    -6.287575   10.676142    8.636956 H    1272 MOH     0.0372 ****
7938 O1     -4.714873   11.019070    9.909748 O    1272 MOH    -0.6497 ****
7939 HO1    -4.280706   10.170731    9.790954 H    1272 MOH     0.4215 ****
7940 HC1   -13.470390   15.644932   -5.316383 H    1273 MOH     0.0372 ****
7941 C1    -14.010790   16.514501   -5.689735 C    1273 MOH     0.1166 ****
7942 HC2   -14.454195   16.185044   -6.629480 H    1273 MOH     0.0372 ****
7943 HC3   -13.287947   17.317525   -5.836106 H    1273 MOH     0.0372 ****
7944 O1    -15.002100   16.852938   -4.696250 O    1273 MOH    -0.6497 ****
7945 HO1   -15.637763   16.138912   -4.613518 H    1273 MOH     0.4215 ****
7946 HC1   -15.026926    8.872909   -9.625491 H    1274 MOH     0.0372 ****
7947 C1    -14.614121    9.880466   -9.662261 C    1274 MOH     0.1166 ****
7948 HC2   -14.699569   10.351176   -8.682918 H    1274 MOH     0.0372 ****
7949 HC3   -15.190894   10.468343  -10.376439 H    1274 MOH     0.0372 ****
7950 O1    -13.274668    9.824944  -10.093596 O    1274 MOH    -0.6497 ****
7951 HO1   -13.241182    9.164398  -10.789389 H    1274 MOH     0.4215 ****
7952 HC1    -5.045695   13.493055    1.307087 H    1275 MOH     0.0372 ****
7953 C1     -5.185991   13.338737    0.237941 C    1275 MOH     0.1166 ****
7954 HC2    -5.382290   14.293222   -0.251377 H    1275 MOH     0.0372 ****
7955 HC3    -6.020262   12.659820    0.061872 H    1275 MOH     0.0372 ****
7956 O1     -4.010506   12.784336   -0.313602 O    1275 MOH    -0.6497 ****
7957 HO1    -3.363874   12.683499    0.388555 H    1275 MOH     0.4215 ****
7958 HC1    -2.282497   21.529423    2.597557 H    1276 MOH     0.0372 ****
7959 C1     -1.799832   20.563507    2.450478 C    1276 MOH     0.1166 ****
7960 HC2    -2.572904   19.809473    2.302693 H    1276 MOH     0.0372 ****
7961 HC3    -1.235183   20.321008    3.349918 H    1276 MOH     0.0372 ****
7962 O1     -0.891660   20.591268    1.327593 O    1276 MOH    -0.6497 ****
7963 HO1    -0.180364   21.195476    1.556695 H    1276 MOH     0.4215 ****
7964 HC1     1.416009    7.404032    1.552453 H    1277 MOH     0.0372 ****
7965 C1      1.249732    7.490989    2.626548 C    1277 MOH     0.1166 ****
7966 HC2     1.321901    8.547127    2.886056 H    1277 MOH     0.0372 ****
7967 HC3     2.036661    6.936996    3.139201 H    1277 MOH     0.0372 ****
7968 O1     -0.075864    6.972105    2.860600 O    1277 MOH    -0.6497 ****
7969 HO1    -0.387056    7.320749    3.699229 H    1277 MOH     0.4215 ****
7970 HC1     0.282093   24.801125   10.733527 H    1278 MOH     0.0372 ****
7971 C1     -0.429202   23.975238   10.722921 C    1278 MOH     0.1166 ****
7972 HC2    -0.067204   23.244066    9.999550 H    1278 MOH     0.0372 ****
7973 HC3    -1.418203   24.347561   10.452806 H    1278 MOH     0.0372 ****
7974 O1     -0.492711   23.401649   12.007734 O    1278 MOH    -0.6497 ****
7975 HO1    -0.768684   24.085465   12.622209 H    1278 MOH     0.4215 ****
7976 HC1    -3.788226   26.330831   -6.274512 H    1279 MOH     0.0372 ****
7977 C1     -4.369040   26.712135   -5.434469 C    1279 MOH     0.1166 ****
7978 HC2    -4.071705   27.719283   -5.142434 H    1279 MOH     0.0372 ****
7979 HC3    -4.161194   26.056896   -4.588063 H    1279 MOH     0.0372 ****
7980 O1     -5.748330   26.668452   -5.719433 O    1279 MOH    -0.6497 ****
7981 HO1    -6.153630   25.993618   -5.170011 H    1279 MOH     0.4215 ****
7982 HC1   -15.210524   15.973980    4.751404 H    1280 MOH     0.0372 ****
7983 C1    -15.601967   15.204840    4.086723 C    1280 MOH     0.1166 ****
7984 HC2   -15.102559   15.238725    3.118694 H    1280 MOH     0.0372 ****
7985 HC3   -16.673529   15.367323    3.962273 H    1280 MOH     0.0372 ****
7986 O1    -15.461094   13.938046    4.671501 O    1280 MOH    -0.6497 ****
7987 HO1   -15.907386   13.937637    5.520736 H    1280 MOH     0.4215 ****
7988 HC1     1.009555   13.542045    0.370877 H    1281 MOH     0.0372 ****
7989 C1      0.992812   12.534896   -0.047023 C    1281 MOH     0.1166 ****
7990 HC2     1.494529   11.876392    0.660791 H    1281 MOH     0.0372 ****
7991 HC3     1.544181   12.506319   -0.987475 H    1281 MOH     0.0372 ****
7992 O1     -0.350105   12.099295   -0.196222 O    1281 MOH    -0.6497 ****
7993 HO1    -0.842008   12.360166    0.586545 H    1281 MOH     0.4215 ****
7994 HC1    -4.855747   17.333038   -0.497450 H    1282 MOH     0.0372 ****
7995 C1     -5.919226   17.533897   -0.628972 C    1282 MOH     0.1166 ****
7996 HC2    -6.501195   16.612889   -0.602102 H    1282 MOH     0.0372 ****
7997 HC3    -6.084348   18.004607   -1.598415 H    1282 MOH     0.0372 ****
7998 O1     -6.369559   18.424286    0.350371 O    1282 MOH    -0.6497 ****
7999 HO1    -6.259285   19.318758    0.020152 H    1282 MOH     0.4215 ****
8000 HC1    -1.142807   20.260587   -3.294057 H    1283 MOH     0.0372 ****
8001 C1     -1.546952   20.606373   -4.245116 C    1283 MOH     0.1166 ****
8002 HC2    -2.479950   20.082999   -4.457248 H    1283 MOH     0.0372 ****
8003 HC3    -0.825842   20.461445   -5.049096 H    1283 MOH     0.0372 ****
8004 O1     -1.793481   21.972372   -4.090966 O    1283 MOH    -0.6497 ****
8005 HO1    -0.969025   22.427977   -3.902876 H    1283 MOH     0.4215 ****
8006 HC1    -5.375362    9.004773    1.909542 H    1284 MOH     0.0372 ****
8007 C1     -5.561269    9.590610    1.009395 C    1284 MOH     0.1166 ****
8008 HC2    -5.543371    8.966806    0.115612 H    1284 MOH     0.0372 ****
8009 HC3    -4.813600   10.376079    0.900500 H    1284 MOH     0.0372 ****
8010 O1     -6.803727   10.178895    1.138795 O    1284 MOH    -0.6497 ****
8011 HO1    -7.102217   10.289531    0.232992 H    1284 MOH     0.4215 ****
8012 HC1    -4.190639   12.579804    3.328705 H    1285 MOH     0.0372 ****
8013 C1     -3.436620   11.826177    3.101017 C    1285 MOH     0.1166 ****
8014 HC2    -3.922749   10.936604    2.701501 H    1285 MOH     0.0372 ****
8015 HC3    -2.947604   11.536729    4.030862 H    1285 MOH     0.0372 ****
8016 O1     -2.502467   12.368331    2.156322 O    1285 MOH    -0.6497 ****
8017 HO1    -2.285961   13.266069    2.415830 H    1285 MOH     0.4215 ****
8018 HC1    -5.945207   20.932564   -5.757617 H    1286 MOH     0.0372 ****
8019 C1     -6.182498   20.645973   -4.732312 C    1286 MOH     0.1166 ****
8020 HC2    -5.420395   19.983386   -4.322897 H    1286 MOH     0.0372 ****
8021 HC3    -7.135703   20.117292   -4.751404 H    1286 MOH     0.0372 ****
8022 O1     -6.284111   21.772330   -3.894391 O    1286 MOH    -0.6497 ****
8023 HO1    -5.510462   22.328773   -4.013892 H    1286 MOH     0.4215 ****
8024 HC1    -8.848124   10.355667    2.816760 H    1287 MOH     0.0372 ****
8025 C1     -8.759789   11.341587    3.272844 C    1287 MOH     0.1166 ****
8026 HC2    -9.360811   11.373430    4.180769 H    1287 MOH     0.0372 ****
8027 HC3    -9.111973   12.076842    2.549473 H    1287 MOH     0.0372 ****
8028 O1     -7.419759   11.545303    3.580435 O    1287 MOH    -0.6497 ****
8029 HO1    -6.934785   11.078675    2.896663 H    1287 MOH     0.4215 ****
8030 HC1     1.096735   22.147919   -4.960708 H    1288 MOH     0.0372 ****
8031 C1      1.517046   23.031368   -4.479875 C    1288 MOH     0.1166 ****
8032 HC2     1.770502   23.773155   -5.237187 H    1288 MOH     0.0372 ****
8033 HC3     2.403856   22.748452   -3.913483 H    1288 MOH     0.0372 ****
8034 O1      0.511879   23.527798   -3.656803 O    1288 MOH    -0.6497 ****
8035 HO1     0.868104   23.724165   -2.787769 H    1288 MOH     0.4215 ****
8036 HC1    -4.552061   24.455746    7.615186 H    1289 MOH     0.0372 ****
8037 C1     -4.594784   25.329806    6.965355 C    1289 MOH     0.1166 ****
8038 HC2    -3.794000   26.029952    7.203650 H    1289 MOH     0.0372 ****
8039 HC3    -5.534133   25.845832    7.160517 H    1289 MOH     0.0372 ****
8040 O1     -4.594207   24.975447    5.573769 O    1289 MOH    -0.6497 ****
8041 HO1    -4.485088   25.767856    5.042732 H    1289 MOH     0.4215 ****
8042 HC1    -6.884556    5.518333    3.630640 H    1290 MOH     0.0372 ****
8043 C1     -5.808375    5.526498    3.460934 C    1290 MOH     0.1166 ****
8044 HC2    -5.388064    6.386677    3.980658 H    1290 MOH     0.0372 ****
8045 HC3    -5.604570    5.586919    2.391789 H    1290 MOH     0.0372 ****
8046 O1     -5.214859    4.381770    3.961566 O    1290 MOH    -0.6497 ****
8047 HO1    -5.676739    4.120491    4.760596 H    1290 MOH     0.4215 ****
8048 HC1   -10.238383   20.186286   -3.770647 H    1291 MOH     0.0372 ****
8049 C1    -10.820930   19.313451   -3.475077 C    1291 MOH     0.1166 ****
8050 HC2   -10.484912   18.398567   -3.962273 H    1291 MOH     0.0372 ****
8051 HC3   -11.841108   19.493488   -3.812366 H    1291 MOH     0.0372 ****
8052 O1    -10.827858   19.166482   -2.072177 O    1291 MOH    -0.6497 ****
8053 HO1   -11.014342   20.028294   -1.691046 H    1291 MOH     0.4215 ****
8054 HC1   -11.069190   17.171780    0.500278 H    1292 MOH     0.0372 ****
8055 C1    -10.037465   16.888048    0.294510 C    1292 MOH     0.1166 ****
8056 HC2    -9.766688   16.062162    0.951412 H    1292 MOH     0.0372 ****
8057 HC3    -9.389101   17.738837    0.505228 H    1292 MOH     0.0372 ****
8058 O1     -9.899479   16.568798   -1.067378 O    1292 MOH    -0.6497 ****
8059 HO1   -10.196237   17.361616   -1.519926 H    1292 MOH     0.4215 ****
8060 HC1    -5.575125   16.444282   -5.186275 H    1293 MOH     0.0372 ****
8061 C1     -5.560691   17.151776   -6.015711 C    1293 MOH     0.1166 ****
8062 HC2    -6.551424   17.582886   -6.157132 H    1293 MOH     0.0372 ****
8063 HC3    -5.221787   16.658612   -6.926465 H    1293 MOH     0.0372 ****
8064 O1     -4.683696   18.203424   -5.708827 O    1293 MOH    -0.6497 ****
8065 HO1    -4.487397   18.210364   -4.769082 H    1293 MOH     0.4215 ****
8066 HC1    -9.718768    8.696954    8.692110 H    1294 MOH     0.0372 ****
8067 C1     -8.726303    8.717775    8.241683 C    1294 MOH     0.1166 ****
8068 HC2    -8.203224    9.628985    8.531597 H    1294 MOH     0.0372 ****
8069 HC3    -8.786347    8.662253    7.155567 H    1294 MOH     0.0372 ****
8070 O1     -7.991336    7.653063    8.689989 O    1294 MOH    -0.6497 ****
8071 HO1    -8.438205    6.856979    8.394418 H    1294 MOH     0.4215 ****
8072 HC1   -11.778754   20.926440    1.697410 H    1295 MOH     0.0372 ****
8073 C1    -12.018354   20.293655    2.551595 C    1295 MOH     0.1166 ****
8074 HC2   -13.063936   20.418171    2.832316 H    1295 MOH     0.0372 ****
8075 HC3   -11.386156   20.601066    3.385273 H    1295 MOH     0.0372 ****
8076 O1    -11.716400   18.943578    2.235518 O    1295 MOH    -0.6497 ****
8077 HO1   -12.178858   18.670460    1.440023 H    1295 MOH     0.4215 ****
8078 HC1   -14.372211   12.988052   -7.402348 H    1296 MOH     0.0372 ****
8079 C1    -13.584128   13.022345   -8.154709 C    1296 MOH     0.1166 ****
8080 HC2   -14.004439   13.413855   -9.081726 H    1296 MOH     0.0372 ****
8081 HC3   -13.186334   12.024586   -8.341385 H    1296 MOH     0.0372 ****
8082 O1    -12.577806   13.922532   -7.804691 O    1296 MOH    -0.6497 ****
8083 HO1   -11.750464   13.457537   -7.948234 H    1296 MOH     0.4215 ****
8084 HC1   -11.168494   12.367514  -10.120466 H    1297 MOH     0.0372 ****
8085 C1    -10.738369   11.797600   -9.295979 C    1297 MOH     0.1166 ****
8086 HC2    -9.962987   11.153792   -9.711051 H    1297 MOH     0.0372 ****
8087 HC3   -11.483728   11.148893   -8.835653 H    1297 MOH     0.0372 ****
8088 O1    -10.169101   12.692072   -8.356235 O    1297 MOH    -0.6497 ****
8089 HO1    -9.754564   12.152776   -7.679533 H    1297 MOH     0.4215 ****
8090 HC1    -0.821223   21.082799   -7.835097 H    1298 MOH     0.0372 ****
8091 C1     -0.077596   20.561874   -8.437552 C    1298 MOH     0.1166 ****
8092 HC2     0.838082   21.151385   -8.485635 H    1298 MOH     0.0372 ****
8093 HC3    -0.413614   20.440624   -9.467806 H    1298 MOH     0.0372 ****
8094 O1      0.260731   19.333047   -7.853482 O    1298 MOH    -0.6497 ****
8095 HO1    -0.443059   19.061562   -7.260219 H    1298 MOH     0.4215 ****
8096 HC1    -0.105309   15.405698   -3.175263 H    1299 MOH     0.0372 ****
8097 C1     -0.144568   14.336088   -3.380324 C    1299 MOH     0.1166 ****
8098 HC2    -0.922837   13.907835   -2.748878 H    1299 MOH     0.0372 ****
8099 HC3     0.824225   13.899670   -3.136372 H    1299 MOH     0.0372 ****
8100 O1     -0.433244   14.044190   -4.748576 O    1299 MOH    -0.6497 ****
8101 HO1    -0.003695   13.229735   -5.020812 H    1299 MOH     0.4215 ****
8102 HC1     4.056232   14.085832   -5.421741 H    1300 MOH     0.0372 ****
8103 C1      3.533730   15.015005   -5.194053 C    1300 MOH     0.1166 ****
8104 HC2     2.501428   14.801899   -4.915453 H    1300 MOH     0.0372 ****
8105 HC3     3.574145   15.661262   -6.070158 H    1300 MOH     0.0372 ****
8106 O1      4.221354   15.578387   -4.127736 O    1300 MOH    -0.6497 ****
8107 HO1     4.683812   14.863136   -3.685087 H    1300 MOH     0.4215 ****
8108 HC1   -11.017229   15.528173    3.439014 H    1301 MOH     0.0372 ****
8109 C1    -12.027014   15.927440    3.530937 C    1301 MOH     0.1166 ****
8110 HC2   -12.639583   15.186061    4.044297 H    1301 MOH     0.0372 ****
8111 HC3   -12.428273   16.119316    2.535331 H    1301 MOH     0.0372 ****
8112 O1    -11.958887   17.116259    4.293199 O    1301 MOH    -0.6497 ****
8113 HO1   -11.624601   17.809464    3.719028 H    1301 MOH     0.4215 ****
8114 HC1     1.440835    8.872093   -0.837568 H    1302 MOH     0.0372 ****
8115 C1      2.312057    9.375463   -1.256882 C    1302 MOH     0.1166 ****
8116 HC2     2.014144   10.324640   -1.700238 H    1302 MOH     0.0372 ****
8117 HC3     2.750843    8.763907   -2.046014 H    1302 MOH     0.0372 ****
8118 O1      3.280851    9.650622   -0.271175 O    1302 MOH    -0.6497 ****
8119 HO1     3.710977    8.812488   -0.088035 H    1302 MOH     0.4215 ****
8120 HC1   -15.273455   22.764374    1.862873 H    1303 MOH     0.0372 ****
8121 C1    -14.410894   23.227327    1.383454 C    1303 MOH     0.1166 ****
8122 HC2   -13.623965   23.342045    2.129452 H    1303 MOH     0.0372 ****
8123 HC3   -14.727859   24.219371    1.061013 H    1303 MOH     0.0372 ****
8124 O1    -14.028110   22.439816    0.224506 O    1303 MOH    -0.6497 ****
8125 HO1   -14.722085   22.485948   -0.436639 H    1303 MOH     0.4215 ****
8126 HC1    -8.587162   18.201791    8.123596 H    1304 MOH     0.0372 ****
8127 C1     -7.979212   19.072585    7.875402 C    1304 MOH     0.1166 ****
8128 HC2    -6.929589   18.803141    7.760850 H    1304 MOH     0.0372 ****
8129 HC3    -8.035792   19.794776    8.690696 H    1304 MOH     0.0372 ****
8130 O1     -8.374119   19.634742    6.665542 O    1304 MOH    -0.6497 ****
8131 HO1    -8.092372   19.036250    5.969749 H    1304 MOH     0.4215 ****
8132 HC1    -3.006494   24.451664   -2.564323 H    1305 MOH     0.0372 ****
8133 C1     -4.021476   24.068319   -2.668268 C    1305 MOH     0.1166 ****
8134 HC2    -4.742586   24.885632   -2.647054 H    1305 MOH     0.0372 ****
8135 HC3    -4.256457   23.373480   -1.862166 H    1305 MOH     0.0372 ****
8136 O1     -4.149070   23.356334   -3.850550 O    1305 MOH    -0.6497 ****
8137 HO1    -3.428537   22.723141   -3.882370 H    1305 MOH     0.4215 ****
8138 HC1    -9.527665   10.457729   -1.674783 H    1306 MOH     0.0372 ****
8139 C1     -8.670877   10.199716   -2.298451 C    1306 MOH     0.1166 ****
8140 HC2    -8.484970   10.992943   -3.021821 H    1306 MOH     0.0372 ****
8141 HC3    -8.916828    9.295854   -2.855651 H    1306 MOH     0.0372 ****
8142 O1     -7.507516   10.009064   -1.497299 O    1306 MOH    -0.6497 ****
8143 HO1    -6.811232    9.661237   -2.058742 H    1306 MOH     0.4215 ****
8144 HC1    -4.148493   21.816421   -6.785043 H    1307 MOH     0.0372 ****
8145 C1     -3.555554   21.477983   -7.634279 C    1307 MOH     0.1166 ****
8146 HC2    -3.188359   20.482266   -7.386084 H    1307 MOH     0.0372 ****
8147 HC3    -2.708581   22.147919   -7.786306 H    1307 MOH     0.0372 ****
8148 O1     -4.359803   21.426952   -8.804540 O    1307 MOH    -0.6497 ****
8149 HO1    -3.952771   20.776613   -9.382247 H    1307 MOH     0.4215 ****
8150 HC1    -8.392017   22.137304   -1.122532 H    1308 MOH     0.0372 ****
8151 C1     -8.210729   21.099129   -0.843225 C    1308 MOH     0.1166 ****
8152 HC2    -8.870063   20.461853   -1.432245 H    1308 MOH     0.0372 ****
8153 HC3    -8.435318   20.944403    0.212485 H    1308 MOH     0.0372 ****
8154 O1     -6.880514   20.703536   -1.084348 O    1308 MOH    -0.6497 ****
8155 HO1    -6.700958   20.811722   -2.021265 H    1308 MOH     0.4215 ****
8156 HC1     2.859385   19.668219    7.912878 H    1309 MOH     0.0372 ****
8157 C1      2.606505   20.532889    8.526647 C    1309 MOH     0.1166 ****
8158 HC2     3.414218   20.716192    9.234461 H    1309 MOH     0.0372 ****
8159 HC3     1.688519   20.300187    9.065462 H    1309 MOH     0.0372 ****
8160 O1      2.414248   21.641283    7.670341 O    1309 MOH    -0.6497 ****
8161 HO1     1.728933   21.370206    7.055158 H    1309 MOH     0.4215 ****
8162 HC1    -3.540543   15.595942   11.797016 H    1310 MOH     0.0372 ****
8163 C1     -4.431972   16.222603   11.765196 C    1310 MOH     0.1166 ****
8164 HC2    -5.320514   15.591860   11.724891 H    1310 MOH     0.0372 ****
8165 HC3    -4.422734   16.840691   10.867170 H    1310 MOH     0.0372 ****
8166 O1     -4.421579   17.070127   12.886667 O    1310 MOH    -0.6497 ****
8167 HO1    -3.665828   17.650248   12.769995 H    1310 MOH     0.4215 ****
8168 HC1     3.712709   16.192801   -0.663620 H    1311 MOH     0.0372 ****
8169 C1      2.702923   15.871918   -0.919592 C    1311 MOH     0.1166 ****
8170 HC2     2.005484   16.302620   -0.200465 H    1311 MOH     0.0372 ****
8171 HC3     2.621517   14.785569   -0.884944 H    1311 MOH     0.0372 ****
8172 O1      2.347853   16.331197   -2.191678 O    1311 MOH    -0.6497 ****
8173 HO1     2.946565   15.923765   -2.821003 H    1311 MOH     0.4215 ****
8174 HC1    -1.883548   16.857838   10.383509 H    1312 MOH     0.0372 ****
8175 C1     -1.658958   17.923774   10.433714 C    1312 MOH     0.1166 ****
8176 HC2    -2.018070   18.471643    9.562558 H    1312 MOH     0.0372 ****
8177 HC3    -0.572963   17.970314   10.361589 H    1312 MOH     0.0372 ****
8178 O1     -2.019802   18.521858   11.700142 O    1312 MOH    -0.6497 ****
8179 HO1    -2.091971   19.470627   11.574277 H    1312 MOH     0.4215 ****
8180 HC1    -2.796916    3.406873    1.751150 H    1313 MOH     0.0372 ****
8181 C1     -2.215524    4.164173    2.277944 C    1313 MOH     0.1166 ****
8182 HC2    -1.161860    3.920041    2.140766 H    1313 MOH     0.0372 ****
8183 HC3    -2.445309    4.174788    3.342847 H    1313 MOH     0.0372 ****
8184 O1     -2.343696    5.424436    1.725694 O    1313 MOH    -0.6497 ****
8185 HO1    -1.545220    5.900862    1.966817 H    1313 MOH     0.4215 ****
8186 HC1    -7.641462   14.763932    6.833126 H    1314 MOH     0.0372 ****
8187 C1     -7.296206   13.920899    6.235621 C    1314 MOH     0.1166 ****
8188 HC2    -6.556043   13.388952    6.834540 H    1314 MOH     0.0372 ****
8189 HC3    -6.854533   14.306694    5.317089 H    1314 MOH     0.0372 ****
8190 O1     -8.348716   13.003157    5.901867 O    1314 MOH    -0.6497 ****
8191 HO1    -8.069856   12.489989    5.140313 H    1314 MOH     0.4215 ****
8192 HC1    -0.484050   23.301220    0.610587 H    1315 MOH     0.0372 ****
8193 C1     -0.976530   23.737638   -0.258448 C    1315 MOH     0.1166 ****
8194 HC2    -1.918766   24.225086   -0.008132 H    1315 MOH     0.0372 ****
8195 HC3    -1.228832   22.903178   -0.913229 H    1315 MOH     0.0372 ****
8196 O1     -0.138795   24.662728   -0.958483 O    1315 MOH    -0.6497 ****
8197 HO1    -0.679772   25.362466   -1.330422 H    1315 MOH     0.4215 ****
8198 HC1     5.856988   11.901295   -1.728523 H    1316 MOH     0.0372 ****
8199 C1      4.951125   12.225852   -2.239761 C    1316 MOH     0.1166 ****
8200 HC2     4.065470   11.833118   -1.740543 H    1316 MOH     0.0372 ****
8201 HC3     4.958631   11.877617   -3.272844 H    1316 MOH     0.0372 ****
8202 O1      4.858172   13.617979   -2.225619 O    1316 MOH    -0.6497 ****
8203 HO1     5.128372   13.903345   -1.349513 H    1316 MOH     0.4215 ****
8204 HC1     2.171183   22.664353    4.359667 H    1317 MOH     0.0372 ****
8205 C1      1.831701   21.918483    3.640539 C    1317 MOH     0.1166 ****
8206 HC2     1.325365   21.081166    4.122079 H    1317 MOH     0.0372 ****
8207 HC3     2.718511   21.521666    3.145564 H    1317 MOH     0.0372 ****
8208 O1      0.990502   22.539021    2.685945 O    1317 MOH    -0.6497 ****
8209 HO1     1.519932   23.224061    2.270166 H    1317 MOH     0.4215 ****
8210 HC1    -7.122424   15.428152   -4.621297 H    1318 MOH     0.0372 ****
8211 C1     -7.752890   15.114617   -3.789739 C    1318 MOH     0.1166 ****
8212 HC2    -8.729190   14.801899   -4.160263 H    1318 MOH     0.0372 ****
8213 HC3    -7.923209   15.941728   -3.099603 H    1318 MOH     0.0372 ****
8214 O1     -7.150714   14.060520   -3.093946 O    1318 MOH    -0.6497 ****
8215 HO1    -7.801388   13.706161   -2.484420 H    1318 MOH     0.4215 ****
8216 HC1    -4.460262   20.160566   -1.477500 H    1319 MOH     0.0372 ****
8217 C1     -3.803815   20.436134   -0.652306 C    1319 MOH     0.1166 ****
8218 HC2    -4.350565   20.400208    0.290974 H    1319 MOH     0.0372 ****
8219 HC3    -3.457404   21.458796   -0.802920 H    1319 MOH     0.0372 ****
8220 O1     -2.684910   19.564115   -0.587252 O    1319 MOH    -0.6497 ****
8221 HO1    -2.079847   19.890714    0.083085 H    1319 MOH     0.4215 ****
8222 HC1    -0.683814   24.875426    6.290068 H    1320 MOH     0.0372 ****
8223 C1     -0.995583   24.456563    7.247491 C    1320 MOH     0.1166 ****
8224 HC2    -1.522704   25.202841    7.840046 H    1320 MOH     0.0372 ****
8225 HC3    -0.102999   24.123024    7.775700 H    1320 MOH     0.0372 ****
8226 O1     -1.810224   23.342453    7.020510 O    1320 MOH    -0.6497 ****
8227 HO1    -2.496116   23.583728    6.394720 H    1320 MOH     0.4215 ****
8228 HC1    -5.846480   21.799683    5.082330 H    1321 MOH     0.0372 ****
8229 C1     -5.264511   22.042183    4.192789 C    1321 MOH     0.1166 ****
8230 HC2    -5.300884   21.220379    3.477905 H    1321 MOH     0.0372 ****
8231 HC3    -4.237405   22.185478    4.530079 H    1321 MOH     0.0372 ****
8232 O1     -5.730432   23.286523    3.661045 O    1321 MOH    -0.6497 ****
8233 HO1    -5.314740   23.963807    4.199153 H    1321 MOH     0.4215 ****
8234 HC1    -8.352180   17.233426    2.753827 H    1322 MOH     0.0372 ****
8235 C1     -8.189367   17.009298    3.808123 C    1322 MOH     0.1166 ****
8236 HC2    -7.621832   16.082574    3.900047 H    1322 MOH     0.0372 ****
8237 HC3    -9.173172   16.891722    4.262086 H    1322 MOH     0.0372 ****
8238 O1     -7.496547   18.085848    4.399972 O    1322 MOH    -0.6497 ****
8239 HO1    -6.658234   18.176479    3.941767 H    1322 MOH     0.4215 ****
8240 HC1   -10.416785   11.167265    7.513363 H    1323 MOH     0.0372 ****
8241 C1    -10.809960   11.602049    8.431895 C    1323 MOH     0.1166 ****
8242 HC2   -10.994135   12.666761    8.290473 H    1323 MOH     0.0372 ****
8243 HC3   -10.110789   11.457937    9.255674 H    1323 MOH     0.0372 ****
8244 O1    -11.974476   10.941095    8.760699 O    1323 MOH    -0.6497 ****
8245 HO1   -12.398828   11.390576    9.495383 H    1323 MOH     0.4215 ****
8246 HC1    -8.629885   17.128506   -6.582104 H    1324 MOH     0.0372 ****
8247 C1     -8.763253   16.105844   -6.934950 C    1324 MOH     0.1166 ****
8248 HC2    -9.762069   16.028277   -7.363457 H    1324 MOH     0.0372 ****
8249 HC3    -8.689930   15.388960   -6.117535 H    1324 MOH     0.0372 ****
8250 O1     -7.842957   15.828643   -7.946820 O    1324 MOH    -0.6497 ****
8251 HO1    -7.726910   14.880691   -8.038744 H    1324 MOH     0.4215 ****
8252 HC1    -5.494296   24.409206   -7.272240 H    1325 MOH     0.0372 ****
8253 C1     -6.341846   23.744578   -7.102534 C    1325 MOH     0.1166 ****
8254 HC2    -7.207294   24.388385   -6.946264 H    1325 MOH     0.0372 ****
8255 HC3    -6.109174   23.142820   -6.224308 H    1325 MOH     0.0372 ****
8256 O1     -6.475214   23.042799   -8.318051 O    1325 MOH    -0.6497 ****
8257 HO1    -5.629396   22.637000   -8.523112 H    1325 MOH     0.4215 ****
8258 HC1     5.456884   10.795350    2.708573 H    1326 MOH     0.0372 ****
8259 C1      5.840822   11.392209    1.881258 C    1326 MOH     0.1166 ****
8260 HC2     6.528446   10.774938    1.302844 H    1326 MOH     0.0372 ****
8261 HC3     6.341962   12.254022    2.323199 H    1326 MOH     0.0372 ****
8262 O1      4.775610   11.831893    1.094248 O    1326 MOH    -0.6497 ****
8263 HO1     4.246180   11.075817    0.832618 H    1326 MOH     0.4215 ****
8264 HC1    -4.076901   19.791510    7.309009 H    1327 MOH     0.0372 ****
8265 C1     -4.013393   18.868460    6.732717 C    1327 MOH     0.1166 ****
8266 HC2    -2.981668   18.664336    6.447046 H    1327 MOH     0.0372 ****
8267 HC3    -4.630580   18.980320    5.841763 H    1327 MOH     0.0372 ****
8268 O1     -4.531276   17.815180    7.497807 O    1327 MOH    -0.6497 ****
8269 HO1    -4.281283   16.990518    7.073543 H    1327 MOH     0.4215 ****
8270 HC1   -16.127933   19.099121   -1.173444 H    1328 MOH     0.0372 ****
8271 C1    -16.294210   20.169548   -1.054650 C    1328 MOH     0.1166 ****
8272 HC2   -15.940872   20.490431   -0.074600 H    1328 MOH     0.0372 ****
8273 HC3   -17.361154   20.382653   -1.126775 H    1328 MOH     0.0372 ****
8274 O1    -15.607163   20.883982   -2.064399 O    1328 MOH    -0.6497 ****
8275 HO1   -15.697807   20.354076   -2.859187 H    1328 MOH     0.4215 ****
8276 HC1    -9.464734   25.415130   -4.022377 H    1329 MOH     0.0372 ****
8277 C1     -8.593512   24.759891   -4.041469 C    1329 MOH     0.1166 ****
8278 HC2    -8.594090   24.188344   -4.969193 H    1329 MOH     0.0372 ****
8279 HC3    -8.621225   24.050764   -3.213447 H    1329 MOH     0.0372 ****
8280 O1     -7.415140   25.544545   -3.967930 O    1329 MOH    -0.6497 ****
8281 HO1    -7.444585   26.055263   -3.155464 H    1329 MOH     0.4215 ****
8282 HC1     5.348919   16.251997    1.444266 H    1330 MOH     0.0372 ****
8283 C1      5.989201   15.376713    1.553160 C    1330 MOH     0.1166 ****
8284 HC2     5.839090   14.975813    2.555837 H    1330 MOH     0.0372 ****
8285 HC3     7.027854   15.689431    1.447094 H    1330 MOH     0.0372 ****
8286 O1      5.609882   14.434884    0.549775 O    1330 MOH    -0.6497 ****
8287 HO1     5.538868   13.561641    0.942220 H    1330 MOH     0.4215 ****
8288 HC1   -13.649946   18.650047   -1.497299 H    1331 MOH     0.0372 ****
8289 C1    -13.382633   17.645348   -1.168494 C    1331 MOH     0.1166 ****
8290 HC2   -12.438088   17.355900   -1.628821 H    1331 MOH     0.0372 ****
8291 HC3   -14.145313   16.931730   -1.478207 H    1331 MOH     0.0372 ****
8292 O1    -13.215201   17.653105    0.260569 O    1331 MOH    -0.6497 ****
8293 HO1   -14.043699   17.840899    0.707460 H    1331 MOH     0.4215 ****
8294 HC1     3.484655   18.465519    5.865097 H    1332 MOH     0.0372 ****
8295 C1      4.343175   18.827227    5.299412 C    1332 MOH     0.1166 ****
8296 HC2     3.995033   19.346519    4.407043 H    1332 MOH     0.0372 ****
8297 HC3     4.972487   17.986644    5.005962 H    1332 MOH     0.0372 ****
8298 O1      5.092576   19.716800    6.094907 O    1332 MOH    -0.6497 ****
8299 HO1     5.260007   19.298346    6.942728 H    1332 MOH     0.4215 ****
8300 HC1     4.283708   19.786611   -4.066925 H    1333 MOH     0.0372 ****
8301 C1      3.836839   20.200574   -4.970607 C    1333 MOH     0.1166 ****
8302 HC2     2.809156   20.519416   -4.798780 H    1333 MOH     0.0372 ****
8303 HC3     3.867439   19.428169   -5.739939 H    1333 MOH     0.0372 ****
8304 O1      4.647439   21.264878   -5.358809 O    1333 MOH    -0.6497 ****
8305 HO1     4.829304   21.811114   -4.590891 H    1333 MOH     0.4215 ****
8306 HC1   -10.768391   24.727640    0.579474 H    1334 MOH     0.0372 ****
8307 C1    -11.139050   24.330822    1.524168 C    1334 MOH     0.1166 ****
8308 HC2   -10.284571   24.207940    2.189556 H    1334 MOH     0.0372 ****
8309 HC3   -11.610745   23.355109    1.408203 H    1334 MOH     0.0372 ****
8310 O1    -11.994105   25.266119    2.086318 O    1334 MOH    -0.6497 ****
8311 HO1   -11.809353   25.267752    3.028185 H    1334 MOH     0.4215 ****
8312 HC1   -10.884438   11.673084   12.731104 H    1335 MOH     0.0372 ****
8313 C1     -9.990123   11.230543   13.170924 C    1335 MOH     0.1166 ****
8314 HC2    -9.924305   11.503661   14.223806 H    1335 MOH     0.0372 ****
8315 HC3    -9.099849   11.600416   12.661807 H    1335 MOH     0.0372 ****
8316 O1    -10.041507    9.818004   13.054959 O    1335 MOH    -0.6497 ****
8317 HO1    -9.136222    9.509777   13.143347 H    1335 MOH     0.4215 ****
8318 HC1   -12.230819    7.314625   -8.933234 H    1336 MOH     0.0372 ****
8319 C1    -11.716977    7.623669   -8.023187 C    1336 MOH     0.1166 ****
8320 HC2   -10.633868    7.597541   -8.139153 H    1336 MOH     0.0372 ****
8321 HC3   -12.020086    6.984353   -7.193044 H    1336 MOH     0.0372 ****
8322 O1    -12.156341    8.881074   -7.740345 O    1336 MOH    -0.6497 ****
8323 HO1   -12.488317    9.243190   -8.565538 H    1336 MOH     0.4215 ****
8324 HC1   -11.480264   20.052789    6.317645 H    1337 MOH     0.0372 ****
8325 C1    -11.546659   19.792326    7.374063 C    1337 MOH     0.1166 ****
8326 HC2   -11.438695   18.714143    7.497807 H    1337 MOH     0.0372 ****
8327 HC3   -12.530464   20.107086    7.722666 H    1337 MOH     0.0372 ****
8328 O1    -10.562854   20.511251    8.097433 O    1337 MOH    -0.6497 ****
8329 HO1    -9.740130   20.402249    7.614479 H    1337 MOH     0.4215 ****
8330 HC1    -3.933718   22.613730   11.166277 H    1338 MOH     0.0372 ****
8331 C1     -3.496087   21.710277   10.741305 C    1338 MOH     0.1166 ****
8332 HC2    -3.252445   21.905419    9.697616 H    1338 MOH     0.0372 ****
8333 HC3    -4.201609   20.883982   10.834643 H    1338 MOH     0.0372 ****
8334 O1     -2.359862   21.412664   11.488717 O    1338 MOH    -0.6497 ****
8335 HO1    -1.732282   22.138529   11.440634 H    1338 MOH     0.4215 ****
8336 HC1    -7.153601   15.415905   10.533416 H    1339 MOH     0.0372 ****
8337 C1     -7.564097   14.459379   10.856564 C    1339 MOH     0.1166 ****
8338 HC2    -6.785251   13.696771   10.877777 H    1339 MOH     0.0372 ****
8339 HC3    -8.349293   14.180545   10.154407 H    1339 MOH     0.0372 ****
8340 O1     -8.159922   14.603899   12.112385 O    1339 MOH    -0.6497 ****
8341 HO1    -7.539271   15.052972   12.690799 H    1339 MOH     0.4215 ****
8342 HC1   -18.854181   16.736588   -3.098896 H    1340 MOH     0.0372 ****
8343 C1    -18.295306   17.368964   -2.409467 C    1340 MOH     0.1166 ****
8344 HC2   -18.250273   18.369581   -2.840095 H    1340 MOH     0.0372 ****
8345 HC3   -17.282057   16.974596   -2.328856 H    1340 MOH     0.0372 ****
8346 O1    -18.960414   17.381212   -1.121118 O    1340 MOH    -0.6497 ****
8347 HO1   -18.493337   16.763124   -0.555433 H    1340 MOH     0.4215 ****
8348 HC1   -10.379257   10.523457   -5.199710 H    1341 MOH     0.0372 ****
8349 C1    -11.261448   11.106844   -4.938787 C    1341 MOH     0.1166 ****
8350 HC2   -10.957184   12.105419   -4.627661 H    1341 MOH     0.0372 ****
8351 HC3   -11.796652   10.616946   -4.125615 H    1341 MOH     0.0372 ****
8352 O1    -12.082440   11.161957   -6.106221 O    1341 MOH    -0.6497 ****
8353 HO1   -12.173084   10.273201   -6.459067 H    1341 MOH     0.4215 ****
8354 HC1    -2.842526    1.530972    0.251376 H    1342 MOH     0.0372 ****
8355 C1     -2.004791    1.759183   -0.408354 C    1342 MOH     0.1166 ****
8356 HC2    -1.647411    2.760616   -0.172888 H    1342 MOH     0.0372 ****
8357 HC3    -2.355243    1.714275   -1.439316 H    1342 MOH     0.0372 ****
8358 O1     -0.923991    0.817354   -0.204000 O    1342 MOH    -0.6497 ****
8359 HO1    -0.090875    1.205598   -0.481893 H    1342 MOH     0.4215 ****
8360 HC1    -8.648938   12.386294   -0.133290 H    1343 MOH     0.0372 ****
8361 C1     -8.960707   13.429777   -0.168645 C    1343 MOH     0.1166 ****
8362 HC2    -8.154726   14.087056    0.159452 H    1343 MOH     0.0372 ****
8363 HC3    -9.803639   13.553068    0.510177 H    1343 MOH     0.0372 ****
8364 O1     -9.413927   13.775971   -1.462651 O    1343 MOH    -0.6497 ****
8365 HO1    -9.625237   14.711676   -1.432952 H    1343 MOH     0.4215 ****
8366 HC1    -1.952830   20.399800    7.364163 H    1344 MOH     0.0372 ****
8367 C1     -1.027337   20.699454    7.857724 C    1344 MOH     0.1166 ****
8368 HC2    -0.583355   19.845399    8.369669 H    1344 MOH     0.0372 ****
8369 HC3    -1.273288   21.451447    8.607257 H    1344 MOH     0.0372 ****
8370 O1     -0.145146   21.198742    6.831712 O    1344 MOH    -0.6497 ****
8371 HO1    -0.335672   22.136896    6.756759 H    1344 MOH     0.4215 ****
8372 HC1   -12.923639   11.557142    0.683419 H    1345 MOH     0.0372 ****
8373 C1    -12.152299   11.264019    1.396182 C    1345 MOH     0.1166 ****
8374 HC2   -11.254520   11.007639    0.833325 H    1345 MOH     0.0372 ****
8375 HC3   -12.482544   10.375671    1.934998 H    1345 MOH     0.0372 ****
8376 O1    -11.891914   12.341387    2.304814 O    1345 MOH    -0.6497 ****
8377 HO1   -12.558177   12.316484    2.995658 H    1345 MOH     0.4215 ****
8378 HC1   -13.052966   12.167881    6.566547 H    1346 MOH     0.0372 ****
8379 C1    -12.569724   12.017238    5.601346 C    1346 MOH     0.1166 ****
8380 HC2   -12.114194   11.027644    5.581547 H    1346 MOH     0.0372 ****
8381 HC3   -11.809353   12.786377    5.462753 H    1346 MOH     0.0372 ****
8382 O1    -13.600871   12.066636    4.614932 O    1346 MOH    -0.6497 ****
8383 HO1   -14.113558   12.867619    4.745040 H    1346 MOH     0.4215 ****
8384 HC1    -3.535924   24.268769    2.712108 H    1347 MOH     0.0372 ****
8385 C1     -2.590224   24.611697    3.132129 C    1347 MOH     0.1166 ****
8386 HC2    -2.703962   25.586186    3.608012 H    1347 MOH     0.0372 ****
8387 HC3    -1.860454   24.725190    2.330270 H    1347 MOH     0.0372 ****
8388 O1     -2.148551   23.689464    4.104401 O    1347 MOH    -0.6497 ****
8389 HO1    -1.317167   23.301220    3.822266 H    1347 MOH     0.4215 ****
8390 HC1    -3.617908   16.203007   -2.217133 H    1348 MOH     0.0372 ****
8391 C1     -2.836175   16.876209   -2.568566 C    1348 MOH     0.1166 ****
8392 HC2    -2.276723   16.441424   -3.396588 H    1348 MOH     0.0372 ****
8393 HC3    -2.150861   17.081149   -1.746907 H    1348 MOH     0.0372 ****
8394 O1     -3.410062   18.075642   -3.014043 O    1348 MOH    -0.6497 ****
8395 HO1    -3.214917   18.719041   -2.328149 H    1348 MOH     0.4215 ****
8396 HC1    -4.219622   28.402936    2.145715 H    1349 MOH     0.0372 ****
8397 C1     -5.020407   28.008976    2.771505 C    1349 MOH     0.1166 ****
8398 HC2    -5.586210   27.278620    2.192384 H    1349 MOH     0.0372 ****
8399 HC3    -5.693020   28.785873    3.132836 H    1349 MOH     0.0372 ****
8400 O1     -4.523308   27.268006    3.815902 O    1349 MOH    -0.6497 ****
8401 HO1    -3.978867   27.864048    4.334918 H    1349 MOH     0.4215 ****
8402 HC1     7.889722   29.641969    6.652107 H    1350 MOH     0.0372 ****
8403 C1      7.950921   30.421724    7.410125 C    1350 MOH     0.1166 ****
8404 HC2     8.311188   29.975917    8.337849 H    1350 MOH     0.0372 ****
8405 HC3     6.957879   30.847118    7.555789 H    1350 MOH     0.0372 ****
8406 O1      8.822143   31.444386    6.982326 O    1350 MOH    -0.6497 ****
8407 HO1     9.708953   31.084311    6.915858 H    1350 MOH     0.4215 ****
8408 HC1     7.510981   23.537433   -6.761002 H    1351 MOH     0.0372 ****
8409 C1      7.323919   22.551513   -6.336030 C    1351 MOH     0.1166 ****
8410 HC2     6.931898   22.646227   -5.323453 H    1351 MOH     0.0372 ****
8411 HC3     8.281166   22.035079   -6.267441 H    1351 MOH     0.0372 ****
8412 O1      6.482720   21.747672   -7.185266 O    1351 MOH    -0.6497 ****
8413 HO1     5.766805   21.401478   -6.647864 H    1351 MOH     0.4215 ****
8414 HC1    10.141388   24.009368   -0.124097 H    1352 MOH     0.0372 ****
8415 C1      9.292684   24.444152    0.404111 C    1352 MOH     0.1166 ****
8416 HC2     9.156429   25.471305    0.066114 H    1352 MOH     0.0372 ****
8417 HC3     9.457228   24.431905    1.481742 H    1352 MOH     0.0372 ****
8418 O1      8.127013   23.746048    0.070357 O    1352 MOH    -0.6497 ****
8419 HO1     8.154149   22.945473    0.599980 H    1352 MOH     0.4215 ****
8420 HC1     9.035763   31.085127   -9.737921 H    1353 MOH     0.0372 ****
8421 C1      8.243638   30.552771   -9.211834 C    1353 MOH     0.1166 ****
8422 HC2     8.270774   30.810376   -8.153295 H    1353 MOH     0.0372 ****
8423 HC3     8.409338   29.485202   -9.353962 H    1353 MOH     0.0372 ****
8424 O1      7.015037   30.968368   -9.767620 O    1353 MOH    -0.6497 ****
8425 HO1     6.320484   30.609518   -9.209712 H    1353 MOH     0.4215 ****
8426 HC1    11.139050   26.095108   -4.281178 H    1354 MOH     0.0372 ****
8427 C1     11.186392   26.818524   -3.466591 C    1354 MOH     0.1166 ****
8428 HC2    10.393113   27.546023   -3.637711 H    1354 MOH     0.0372 ****
8429 HC3    12.147103   27.332101   -3.513260 H    1354 MOH     0.0372 ****
8430 O1     11.001063   26.176758   -2.172586 O    1354 MOH    -0.6497 ****
8431 HO1    10.809383   26.852409   -1.517098 H    1354 MOH     0.4215 ****
8432 HC1     5.878811   28.779749    8.731001 H    1355 MOH     0.0372 ****
8433 C1      6.178456   27.732592    8.716152 C    1355 MOH     0.1166 ****
8434 HC2     6.812387   27.543981    7.849239 H    1355 MOH     0.0372 ****
8435 HC3     5.310699   27.078578    8.636956 H    1355 MOH     0.0372 ****
8436 O1      6.883401   27.421507    9.909748 O    1355 MOH    -0.6497 ****
8437 HO1     7.317568   26.573167    9.790954 H    1355 MOH     0.4215 ****
8438 HC1    -3.428652   25.275346   -9.625491 H    1356 MOH     0.0372 ****
8439 C1     -3.015847   26.282902   -9.662261 C    1356 MOH     0.1166 ****
8440 HC2    -3.101295   26.753613   -8.682918 H    1356 MOH     0.0372 ****
8441 HC3    -3.592620   26.870780  -10.376439 H    1356 MOH     0.0372 ****
8442 O1     -1.676394   26.227381  -10.093596 O    1356 MOH    -0.6497 ****
8443 HO1    -1.642908   25.566835  -10.789389 H    1356 MOH     0.4215 ****
8444 HC1    12.684616   23.432105   -3.676602 H    1357 MOH     0.0372 ****
8445 C1     12.004498   22.863415   -3.042327 C    1357 MOH     0.1166 ****
8446 HC2    12.358991   22.900565   -2.012072 H    1357 MOH     0.0372 ****
8447 HC3    11.949649   21.826872   -3.373960 H    1357 MOH     0.0372 ****
8448 O1     10.771855   23.486402   -3.124351 O    1357 MOH    -0.6497 ****
8449 HO1    10.874046   24.379241   -2.788476 H    1357 MOH     0.4215 ****
8450 HC1     6.552579   29.895492    1.307087 H    1358 MOH     0.0372 ****
8451 C1      6.412283   29.741174    0.237941 C    1358 MOH     0.1166 ****
8452 HC2     6.215984   30.695658   -0.251377 H    1358 MOH     0.0372 ****
8453 HC3     5.578012   29.062257    0.061872 H    1358 MOH     0.0372 ****
8454 O1      7.587768   29.186773   -0.313602 O    1358 MOH    -0.6497 ****
8455 HO1     8.234400   29.085935    0.388555 H    1358 MOH     0.4215 ****
8456 HC1     4.008774   29.689326   -6.061673 H    1359 MOH     0.0372 ****
8457 C1      3.847693   28.676462   -5.693270 C    1359 MOH     0.1166 ****
8458 HC2     3.096560   28.721369   -4.905553 H    1359 MOH     0.0372 ****
8459 HC3     4.772608   28.275971   -5.278199 H    1359 MOH     0.0372 ****
8460 O1      3.396205   27.829755   -6.749688 O    1359 MOH    -0.6497 ****
8461 HO1     3.800928   26.971617   -6.599781 H    1359 MOH     0.4215 ****
8462 HC1    13.014283   23.806468    1.552453 H    1360 MOH     0.0372 ****
8463 C1     12.848006   23.893425    2.626548 C    1360 MOH     0.1166 ****
8464 HC2    12.920175   24.949564    2.886056 H    1360 MOH     0.0372 ****
8465 HC3    13.634935   23.339432    3.139201 H    1360 MOH     0.0372 ****
8466 O1     11.522410   23.374542    2.860600 O    1360 MOH    -0.6497 ****
8467 HO1    11.211218   23.723186    3.699229 H    1360 MOH     0.4215 ****
8468 HC1    12.607829   29.944481    0.370877 H    1361 MOH     0.0372 ****
8469 C1     12.591086   28.937333   -0.047023 C    1361 MOH     0.1166 ****
8470 HC2    13.092803   28.278828    0.660791 H    1361 MOH     0.0372 ****
8471 HC3    13.142455   28.908755   -0.987475 H    1361 MOH     0.0372 ****
8472 O1     11.248169   28.501732   -0.196222 O    1361 MOH    -0.6497 ****
8473 HO1    10.756266   28.762603    0.586545 H    1361 MOH     0.4215 ****
8474 HC1     6.222912   25.407210    1.909542 H    1362 MOH     0.0372 ****
8475 C1      6.037005   25.993046    1.009395 C    1362 MOH     0.1166 ****
8476 HC2     6.054903   25.369243    0.115612 H    1362 MOH     0.0372 ****
8477 HC3     6.784674   26.778516    0.900500 H    1362 MOH     0.0372 ****
8478 O1      4.794548   26.581332    1.138795 O    1362 MOH    -0.6497 ****
8479 HO1     4.496057   26.691967    0.232992 H    1362 MOH     0.4215 ****
8480 HC1     7.407635   28.982240    3.328705 H    1363 MOH     0.0372 ****
8481 C1      8.161654   28.228614    3.101017 C    1363 MOH     0.1166 ****
8482 HC2     7.675525   27.339041    2.701501 H    1363 MOH     0.0372 ****
8483 HC3     8.650670   27.939166    4.030862 H    1363 MOH     0.0372 ****
8484 O1      9.095807   28.770768    2.156322 O    1363 MOH    -0.6497 ****
8485 HO1     9.312313   29.668506    2.415830 H    1363 MOH     0.4215 ****
8486 HC1     3.344244   22.352696    0.594323 H    1364 MOH     0.0372 ****
8487 C1      2.937212   23.353313    0.449366 C    1364 MOH     0.1166 ****
8488 HC2     1.891630   23.307589    0.143896 H    1364 MOH     0.0372 ****
8489 HC3     3.493777   23.810959   -0.367342 H    1364 MOH     0.0372 ****
8490 O1      3.091942   24.177158    1.606193 O    1364 MOH    -0.6497 ****
8491 HO1     3.374843   25.057341    1.345978 H    1364 MOH     0.4215 ****
8492 HC1     2.750150   26.758103    2.816760 H    1365 MOH     0.0372 ****
8493 C1      2.838485   27.744023    3.272844 C    1365 MOH     0.1166 ****
8494 HC2     2.237463   27.775866    4.180769 H    1365 MOH     0.0372 ****
8495 HC3     2.486301   28.479278    2.549473 H    1365 MOH     0.0372 ****
8496 O1      4.178515   27.947739    3.580435 O    1365 MOH    -0.6497 ****
8497 HO1     4.663489   27.481111    2.896663 H    1365 MOH     0.4215 ****
8498 HC1     4.713719   21.920770    3.630640 H    1366 MOH     0.0372 ****
8499 C1      5.789899   21.928934    3.460934 C    1366 MOH     0.1166 ****
8500 HC2     6.210210   22.789114    3.980658 H    1366 MOH     0.0372 ****
8501 HC3     5.993704   21.989355    2.391789 H    1366 MOH     0.0372 ****
8502 O1      6.383415   20.784206    3.961566 O    1366 MOH    -0.6497 ****
8503 HO1     5.921535   20.522927    4.760596 H    1366 MOH     0.4215 ****
8504 HC1    12.154609   29.012042    8.143395 H    1367 MOH     0.0372 ****
8505 C1     12.229664   30.053892    7.833682 C    1367 MOH     0.1166 ****
8506 HC2    13.268317   30.278429    7.590438 H    1367 MOH     0.0372 ****
8507 HC3    11.867666   30.655242    8.668775 H    1367 MOH     0.0372 ****
8508 O1     11.341700   30.211476    6.757466 O    1367 MOH    -0.6497 ****
8509 HO1    11.708894   29.690959    6.039752 H    1367 MOH     0.4215 ****
8510 HC1     1.879506   25.099391    8.692110 H    1368 MOH     0.0372 ****
8511 C1      2.871971   25.120211    8.241683 C    1368 MOH     0.1166 ****
8512 HC2     3.395050   26.031422    8.531597 H    1368 MOH     0.0372 ****
8513 HC3     2.811927   25.064690    7.155567 H    1368 MOH     0.0372 ****
8514 O1      3.606938   24.055500    8.689989 O    1368 MOH    -0.6497 ****
8515 HO1     3.160069   23.259416    8.394418 H    1368 MOH     0.4215 ****
8516 HC1    -2.773937   29.390488   -7.402348 H    1369 MOH     0.0372 ****
8517 C1     -1.985854   29.424781   -8.154709 C    1369 MOH     0.1166 ****
8518 HC2    -2.406165   29.816291   -9.081726 H    1369 MOH     0.0372 ****
8519 HC3    -1.588060   28.427022   -8.341385 H    1369 MOH     0.0372 ****
8520 O1     -0.979532   30.324969   -7.804691 O    1369 MOH    -0.6497 ****
8521 HO1    -0.152189   29.859974   -7.948234 H    1369 MOH     0.4215 ****
8522 HC1     0.429780   28.769951  -10.120466 H    1370 MOH     0.0372 ****
8523 C1      0.859906   28.200036   -9.295979 C    1370 MOH     0.1166 ****
8524 HC2     1.635287   27.556229   -9.711051 H    1370 MOH     0.0372 ****
8525 HC3     0.114546   27.551330   -8.835653 H    1370 MOH     0.0372 ****
8526 O1      1.429173   29.094508   -8.356235 O    1370 MOH    -0.6497 ****
8527 HO1     1.843710   28.555212   -7.679533 H    1370 MOH     0.4215 ****
8528 HC1    11.492965   31.808135   -3.175263 H    1371 MOH     0.0372 ****
8529 C1     11.453706   30.738524   -3.380324 C    1371 MOH     0.1166 ****
8530 HC2    10.675437   30.310272   -2.748878 H    1371 MOH     0.0372 ****
8531 HC3    12.422499   30.302107   -3.136372 H    1371 MOH     0.0372 ****
8532 O1     11.165030   30.446627   -4.748576 O    1371 MOH    -0.6497 ****
8533 HO1    11.594579   29.632171   -5.020812 H    1371 MOH     0.4215 ****
8534 HC1     9.054815   25.702373    4.218245 H    1372 MOH     0.0372 ****
8535 C1      9.305963   25.181857    5.142434 C    1372 MOH     0.1166 ****
8536 HC2     8.639123   24.328210    5.263349 H    1372 MOH     0.0372 ****
8537 HC3     9.182987   25.851792    5.993083 H    1372 MOH     0.0372 ****
8538 O1     10.645993   24.751155    5.045560 O    1372 MOH    -0.6497 ****
8539 HO1    10.835941   24.195529    5.804286 H    1372 MOH     0.4215 ****
8540 HC1     7.198057   27.922836   -7.510535 H    1373 MOH     0.0372 ****
8541 C1      7.503475   26.942632   -7.877523 C    1373 MOH     0.1166 ****
8542 HC2     8.452639   27.022240   -8.407146 H    1373 MOH     0.0372 ****
8543 HC3     6.736754   26.550305   -8.544325 H    1373 MOH     0.0372 ****
8544 O1      7.657050   26.022032   -6.803428 O    1373 MOH    -0.6497 ****
8545 HO1     8.506333   25.588064   -6.911615 H    1373 MOH     0.4215 ****
8546 HC1    13.039109   25.274529   -0.837568 H    1374 MOH     0.0372 ****
8547 C1     13.910331   25.777899   -1.256882 C    1374 MOH     0.1166 ****
8548 HC2    13.612418   26.727077   -1.700238 H    1374 MOH     0.0372 ****
8549 HC3    14.349117   25.166343   -2.046014 H    1374 MOH     0.0372 ****
8550 O1     14.879125   26.053059   -0.271175 O    1374 MOH    -0.6497 ****
8551 HO1    15.309251   25.214925   -0.088035 H    1374 MOH     0.4215 ****
8552 HC1     4.483933   31.598295  -12.585440 H    1375 MOH     0.0372 ****
8553 C1      5.407694   31.786498  -13.133448 C    1375 MOH     0.1166 ****
8554 HC2     5.998323   30.871613  -13.095971 H    1375 MOH     0.0372 ****
8555 HC3     5.930196   32.609934  -12.646251 H    1375 MOH     0.0372 ****
8556 O1      5.134607   32.138816  -14.487557 O    1375 MOH    -0.6497 ****
8557 HO1     5.916339   32.560945  -14.851010 H    1375 MOH     0.4215 ****
8558 HC1     2.070609   26.860166   -1.674783 H    1376 MOH     0.0372 ****
8559 C1      2.927397   26.602153   -2.298451 C    1376 MOH     0.1166 ****
8560 HC2     3.113304   27.395379   -3.021821 H    1376 MOH     0.0372 ****
8561 HC3     2.681446   25.698291   -2.855651 H    1376 MOH     0.0372 ****
8562 O1      4.090758   26.411501   -1.497299 O    1376 MOH    -0.6497 ****
8563 HO1     4.787042   26.063673   -2.058742 H    1376 MOH     0.4215 ****
8564 HC1     8.125281   26.520095   -2.491491 H    1377 MOH     0.0372 ****
8565 C1      7.627028   25.744423   -3.071318 C    1377 MOH     0.1166 ****
8566 HC2     8.353912   24.998962   -3.393759 H    1377 MOH     0.0372 ****
8567 HC3     7.164570   26.218399   -3.937524 H    1377 MOH     0.0372 ****
8568 O1      6.651883   25.113679   -2.274409 O    1377 MOH    -0.6497 ****
8569 HO1     7.123579   24.744623   -1.524876 H    1377 MOH     0.4215 ****
8570 HC1    10.717007   28.811184    4.378759 H    1378 MOH     0.0372 ****
8571 C1     11.539731   28.120428    4.193497 C    1378 MOH     0.1166 ****
8572 HC2    11.815127   28.241678    3.146272 H    1378 MOH     0.0372 ****
8573 HC3    11.231426   27.080620    4.300270 H    1378 MOH     0.0372 ****
8574 O1     12.629768   28.431105    5.078087 O    1378 MOH    -0.6497 ****
8575 HO1    13.240605   27.690543    5.090815 H    1378 MOH     0.4215 ****
8576 HC1     6.464245   30.152688   -4.816458 H    1379 MOH     0.0372 ****
8577 C1      7.391469   29.975916   -4.272693 C    1379 MOH     0.1166 ****
8578 HC2     7.325651   29.051234   -3.699229 H    1379 MOH     0.0372 ****
8579 HC3     7.614904   30.812417   -3.610134 H    1379 MOH     0.0372 ****
8580 O1      8.394904   29.873854   -5.203245 O    1379 MOH    -0.6497 ****
8581 HO1     9.204926   30.214742   -4.816458 H    1379 MOH     0.4215 ****
8582 HC1     4.367308   30.296800  -10.089353 H    1380 MOH     0.0372 ****
8583 C1      4.647323   29.388447   -9.555488 C    1380 MOH     0.1166 ****
8584 HC2     5.455614   28.892834  -10.092889 H    1380 MOH     0.0372 ****
8585 HC3     3.816516   28.682586   -9.532153 H    1380 MOH     0.0372 ****
8586 O1      5.084955   29.649726   -8.236026 O    1380 MOH    -0.6497 ****
8587 HO1     4.737390   28.945090   -7.684483 H    1380 MOH     0.4215 ****
8588 HC1     8.801358   19.809309    1.751150 H    1381 MOH     0.0372 ****
8589 C1      9.382750   20.566610    2.277944 C    1381 MOH     0.1166 ****
8590 HC2    10.436414   20.322477    2.140766 H    1381 MOH     0.0372 ****
8591 HC3     9.152965   20.577224    3.342847 H    1381 MOH     0.0372 ****
8592 O1      9.254578   21.826872    1.725694 O    1381 MOH    -0.6497 ****
8593 HO1    10.053054   22.303298    1.966817 H    1381 MOH     0.4215 ****
8594 HC1     3.956812   31.166369    6.833126 H    1382 MOH     0.0372 ****
8595 C1      4.302068   30.323336    6.235621 C    1382 MOH     0.1166 ****
8596 HC2     5.042231   29.791388    6.834540 H    1382 MOH     0.0372 ****
8597 HC3     4.743741   30.709130    5.317089 H    1382 MOH     0.0372 ****
8598 O1      3.249558   29.405594    5.901867 O    1382 MOH    -0.6497 ****
8599 HO1     3.528418   28.892426    5.140313 H    1382 MOH     0.4215 ****
8600 HC1     9.021906   19.486793   -2.911512 H    1383 MOH     0.0372 ****
8601 C1      8.988997   20.571917   -3.010507 C    1383 MOH     0.1166 ****
8602 HC2     9.434134   21.040994   -2.132988 H    1383 MOH     0.0372 ****
8603 HC3     7.951499   20.897699   -3.085461 H    1383 MOH     0.0372 ****
8604 O1      9.674889   20.949139   -4.175819 O    1383 MOH    -0.6497 ****
8605 HO1     9.776503   21.902398   -4.135514 H    1383 MOH     0.4215 ****
8606 HC1     9.989545   32.867539    0.256326 H    1384 MOH     0.0372 ****
8607 C1     10.652921   32.045735    0.525734 C    1384 MOH     0.1166 ****
8608 HC2    11.669057   32.431938    0.603516 H    1384 MOH     0.0372 ****
8609 HC3    10.639064   31.263123   -0.232992 H    1384 MOH     0.0372 ****
8610 O1     10.274756   31.618708    1.812668 O    1384 MOH    -0.6497 ****
8611 HO1    10.328450   32.387847    2.384010 H    1384 MOH     0.4215 ****
8612 HC1     4.475850   31.830588   -4.621297 H    1385 MOH     0.0372 ****
8613 C1      3.845384   31.517054   -3.789739 C    1385 MOH     0.1166 ****
8614 HC2     2.869084   31.204336   -4.160263 H    1385 MOH     0.0372 ****
8615 HC3     3.675065   32.344165   -3.099603 H    1385 MOH     0.0372 ****
8616 O1      4.447560   30.462957   -3.093946 O    1385 MOH    -0.6497 ****
8617 HO1     3.796886   30.108597   -2.484420 H    1385 MOH     0.4215 ****
8618 HC1    -3.523915   26.495192   -1.424467 H    1386 MOH     0.0372 ****
8619 C1     -2.880170   27.279437   -1.821154 C    1386 MOH     0.1166 ****
8620 HC2    -2.846106   28.080828   -1.083641 H    1386 MOH     0.0372 ****
8621 HC3    -3.279119   27.719528   -2.736150 H    1386 MOH     0.0372 ****
8622 O1     -1.568430   26.814850   -2.051671 O    1386 MOH    -0.6497 ****
8623 HO1    -1.126179   27.601953   -2.376940 H    1386 MOH     0.4215 ****
8624 HC1     1.181490   27.569701    7.513363 H    1387 MOH     0.0372 ****
8625 C1      0.788314   28.004486    8.431895 C    1387 MOH     0.1166 ****
8626 HC2     0.604139   29.069197    8.290473 H    1387 MOH     0.0372 ****
8627 HC3     1.487485   27.860374    9.255674 H    1387 MOH     0.0372 ****
8628 O1     -0.376202   27.343532    8.760699 O    1387 MOH    -0.6497 ****
8629 HO1    -0.800554   27.793013    9.495383 H    1387 MOH     0.4215 ****
8630 HC1     5.155392   24.256358   -7.624379 H    1388 MOH     0.0372 ****
8631 C1      4.418693   24.602144   -6.899595 C    1388 MOH     0.1166 ****
8632 HC2     4.147915   23.794221   -6.218651 H    1388 MOH     0.0372 ****
8633 HC3     3.509943   24.901798   -7.420025 H    1388 MOH     0.0372 ****
8634 O1      4.858634   25.683594   -6.105514 O    1388 MOH    -0.6497 ****
8635 HO1     5.806065   25.615008   -5.969749 H    1388 MOH     0.4215 ****
8636 HC1     3.992608   22.005685   -1.862166 H    1389 MOH     0.0372 ****
8637 C1      5.027797   22.309830   -2.018436 C    1389 MOH     0.1166 ****
8638 HC2     5.616694   21.407193   -2.186021 H    1389 MOH     0.0372 ****
8639 HC3     5.400765   22.866681   -1.160009 H    1389 MOH     0.0372 ****
8640 O1      5.025488   23.041411   -3.195062 O    1389 MOH    -0.6497 ****
8641 HO1     5.662882   23.750538   -3.085461 H    1389 MOH     0.4215 ****
8642 HC1    17.055158   27.197787    2.708573 H    1390 MOH     0.0372 ****
8643 C1     17.439096   27.794646    1.881258 C    1390 MOH     0.1166 ****
8644 HC2    18.126720   27.177374    1.302844 H    1390 MOH     0.0372 ****
8645 HC3    17.940236   28.656458    2.323199 H    1390 MOH     0.0372 ****
8646 O1     16.373885   28.234329    1.094248 O    1390 MOH    -0.6497 ****
8647 HO1    15.844454   27.478253    0.832618 H    1390 MOH     0.4215 ****
8648 HC1     0.713836   28.075521   12.731104 H    1391 MOH     0.0372 ****
8649 C1      1.608151   27.632980   13.170924 C    1391 MOH     0.1166 ****
8650 HC2     1.673969   27.906098   14.223806 H    1391 MOH     0.0372 ****
8651 HC3     2.498425   28.002853   12.661807 H    1391 MOH     0.0372 ****
8652 O1      1.556767   26.220441   13.054959 O    1391 MOH    -0.6497 ****
8653 HO1     2.462052   25.912213   13.143347 H    1391 MOH     0.4215 ****
8654 HC1    -0.632545   23.717062   -8.933234 H    1392 MOH     0.0372 ****
8655 C1     -0.118703   24.026106   -8.023187 C    1392 MOH     0.1166 ****
8656 HC2     0.964406   23.999978   -8.139153 H    1392 MOH     0.0372 ****
8657 HC3    -0.421812   23.386789   -7.193044 H    1392 MOH     0.0372 ****
8658 O1     -0.558067   25.283511   -7.740345 O    1392 MOH    -0.6497 ****
8659 HO1    -0.890043   25.645627   -8.565538 H    1392 MOH     0.4215 ****
8660 HC1     4.444673   31.818341   10.533416 H    1393 MOH     0.0372 ****
8661 C1      4.034177   30.861815   10.856564 C    1393 MOH     0.1166 ****
8662 HC2     4.813023   30.099208   10.877777 H    1393 MOH     0.0372 ****
8663 HC3     3.248981   30.582982   10.154407 H    1393 MOH     0.0372 ****
8664 O1      3.438352   31.006335   12.112385 O    1393 MOH    -0.6497 ****
8665 HO1     4.059003   31.455408   12.690799 H    1393 MOH     0.4215 ****
8666 HC1     1.219017   26.925893   -5.199710 H    1394 MOH     0.0372 ****
8667 C1      0.336826   27.509280   -4.938787 C    1394 MOH     0.1166 ****
8668 HC2     0.641090   28.507856   -4.627661 H    1394 MOH     0.0372 ****
8669 HC3    -0.198378   27.019382   -4.125615 H    1394 MOH     0.0372 ****
8670 O1     -0.484166   27.564394   -6.106221 O    1394 MOH    -0.6497 ****
8671 HO1    -0.574810   26.675637   -6.459067 H    1394 MOH     0.4215 ****
8672 HC1     8.755748   17.933408    0.251376 H    1395 MOH     0.0372 ****
8673 C1      9.593483   18.161619   -0.408354 C    1395 MOH     0.1166 ****
8674 HC2     9.950863   19.163052   -0.172888 H    1395 MOH     0.0372 ****
8675 HC3     9.243031   18.116712   -1.439316 H    1395 MOH     0.0372 ****
8676 O1     10.674283   17.219790   -0.204000 O    1395 MOH    -0.6497 ****
8677 HO1    11.507399   17.608035   -0.481893 H    1395 MOH     0.4215 ****
8678 HC1     2.949336   28.788730   -0.133290 H    1396 MOH     0.0372 ****
8679 C1      2.637567   29.832213   -0.168645 C    1396 MOH     0.1166 ****
8680 HC2     3.443548   30.489493    0.159452 H    1396 MOH     0.0372 ****
8681 HC3     1.794636   29.955504    0.510177 H    1396 MOH     0.0372 ****
8682 O1      2.184347   30.178408   -1.462651 O    1396 MOH    -0.6497 ****
8683 HO1     1.973037   31.114113   -1.432952 H    1396 MOH     0.4215 ****
8684 HC1    -1.325365   27.959578    0.683419 H    1397 MOH     0.0372 ****
8685 C1     -0.554025   27.666456    1.396182 C    1397 MOH     0.1166 ****
8686 HC2     0.343754   27.410076    0.833325 H    1397 MOH     0.0372 ****
8687 HC3    -0.884270   26.778108    1.934998 H    1397 MOH     0.0372 ****
8688 O1     -0.293640   28.743823    2.304814 O    1397 MOH    -0.6497 ****
8689 HO1    -0.959903   28.718920    2.995658 H    1397 MOH     0.4215 ****
8690 HC1    -1.454692   28.570318    6.566547 H    1398 MOH     0.0372 ****
8691 C1     -0.971450   28.419674    5.601346 C    1398 MOH     0.1166 ****
8692 HC2    -0.515920   27.430080    5.581547 H    1398 MOH     0.0372 ****
8693 HC3    -0.211079   29.188814    5.462753 H    1398 MOH     0.0372 ****
8694 O1     -2.002597   28.469072    4.614932 O    1398 MOH    -0.6497 ****
8695 HO1    -2.515284   29.270055    4.745040 H    1398 MOH     0.4215 ****
8696 HC1   -15.306826  -27.766558   -7.552820 H    1399 MOH     0.0372 ****
8697 C1    -15.245627  -26.986804   -6.794801 C    1399 MOH     0.1166 ****
8698 HC2   -14.885360  -27.432611   -5.867077 H    1399 MOH     0.0372 ****
8699 HC3   -16.238669  -26.561409   -6.649137 H    1399 MOH     0.0372 ****
8700 O1    -14.374405  -25.964142   -7.222601 O    1399 MOH    -0.6497 ****
8701 HO1   -13.487595  -26.324217   -7.289069 H    1399 MOH     0.4215 ****
8702 HC1    -9.048349  -23.017406  -13.333418 H    1400 MOH     0.0372 ****
8703 C1     -8.614759  -22.824305  -12.352660 C    1400 MOH     0.1166 ****
8704 HC2    -8.328970  -21.773474  -12.301749 H    1400 MOH     0.0372 ****
8705 HC3    -7.726794  -23.443617  -12.226088 H    1400 MOH     0.0372 ****
8706 O1     -9.569119  -23.139064  -11.345033 O    1400 MOH    -0.6497 ****
8707 HO1    -9.368201  -24.030678  -11.052291 H    1400 MOH     0.4215 ****
8708 HC1    -4.978607  -24.628762  -17.948703 H    1401 MOH     0.0372 ****
8709 C1     -5.173174  -23.887383  -17.173714 C    1401 MOH     0.1166 ****
8710 HC2    -6.237230  -23.845334  -16.941076 H    1401 MOH     0.0372 ****
8711 HC3    -4.871797  -22.899014  -17.520904 H    1401 MOH     0.0372 ****
8712 O1     -4.503447  -24.217656  -15.962440 O    1401 MOH    -0.6497 ****
8713 HO1    -4.721108  -25.112128  -15.690204 H    1401 MOH     0.4215 ****
8714 HC1   -20.864977  -19.915944  -11.481505 H    1402 MOH     0.0372 ****
8715 C1    -20.261068  -19.364400  -10.760963 C    1402 MOH     0.1166 ****
8716 HC2   -19.449314  -19.999635  -10.407410 H    1402 MOH     0.0372 ****
8717 HC3   -20.909433  -19.078627   -9.932234 H    1402 MOH     0.0372 ****
8718 O1    -19.756464  -18.240493  -11.416451 O    1402 MOH    -0.6497 ****
8719 HO1   -18.943555  -17.978806  -10.977338 H    1402 MOH     0.4215 ****
8720 HC1   -10.095662  -20.264588  -16.419939 H    1403 MOH     0.0372 ****
8721 C1    -10.047165  -21.352161  -16.470850 C    1403 MOH     0.1166 ****
8722 HC2   -10.425329  -21.706929  -17.428980 H    1403 MOH     0.0372 ****
8723 HC3   -10.653960  -21.798785  -15.683133 H    1403 MOH     0.0372 ****
8724 O1     -8.710599  -21.786538  -16.397311 O    1403 MOH    -0.6497 ****
8725 HO1    -8.742930  -22.745921  -16.376098 H    1403 MOH     0.4215 ****
8726 HC1    -5.299613  -22.598952  -14.167096 H    1404 MOH     0.0372 ****
8727 C1     -5.217052  -21.659164  -13.621210 C    1404 MOH     0.1166 ****
8728 HC2    -6.043818  -21.003517  -13.894153 H    1404 MOH     0.0372 ****
8729 HC3    -4.259806  -21.197027  -13.865869 H    1404 MOH     0.0372 ****
8730 O1     -5.258044  -22.017198  -12.279828 O    1404 MOH    -0.6497 ****
8731 HO1    -5.034032  -21.274186  -11.715557 H    1404 MOH     0.4215 ****
8732 HC1   -17.392215  -17.974723  -14.423776 H    1405 MOH     0.0372 ****
8733 C1    -18.057900  -17.115769  -14.338923 C    1405 MOH     0.1166 ****
8734 HC2   -19.100017  -17.435836  -14.345995 H    1405 MOH     0.0372 ****
8735 HC3   -17.922800  -16.491149  -15.221393 H    1405 MOH     0.0372 ****
8736 O1    -17.832156  -16.318868  -13.135428 O    1405 MOH    -0.6497 ****
8737 HO1   -17.904902  -16.885925  -12.365388 H    1405 MOH     0.4215 ****
8738 HC1   -20.451594  -13.720776  -11.690102 H    1406 MOH     0.0372 ****
8739 C1    -20.905969  -13.422755  -12.634796 C    1406 MOH     0.1166 ****
8740 HC2   -21.986768  -13.557477  -12.586713 H    1406 MOH     0.0372 ****
8741 HC3   -20.483348  -14.047375  -13.422513 H    1406 MOH     0.0372 ****
8742 O1    -20.624222  -12.065329  -12.894304 O    1406 MOH    -0.6497 ****
8743 HO1   -20.893844  -11.871003  -13.795158 H    1406 MOH     0.4215 ****
8744 HC1   -19.410631  -10.807108   -8.566811 H    1407 MOH     0.0372 ****
8745 C1    -19.752423  -11.476635   -9.355942 C    1407 MOH     0.1166 ****
8746 HC2   -20.250676  -12.352736   -8.940163 H    1407 MOH     0.0372 ****
8747 HC3   -18.880047  -11.794661   -9.926577 H    1407 MOH     0.0372 ****
8748 O1    -20.533578  -10.746687  -10.278009 O    1407 MOH    -0.6497 ****
8749 HO1   -20.506442  -11.233727  -11.104617 H    1407 MOH     0.4215 ****
8750 HC1   -13.880771  -19.476669  -11.607370 H    1408 MOH     0.0372 ****
8751 C1    -13.398106  -20.442584  -11.754448 C    1408 MOH     0.1166 ****
8752 HC2   -14.171178  -21.196619  -11.902233 H    1408 MOH     0.0372 ****
8753 HC3   -12.833457  -20.685084  -10.855008 H    1408 MOH     0.0372 ****
8754 O1    -12.489934  -20.414823  -12.877334 O    1408 MOH    -0.6497 ****
8755 HO1   -11.778638  -19.810616  -12.648231 H    1408 MOH     0.4215 ****
8756 HC1   -11.316181  -16.204967   -3.471399 H    1409 MOH     0.0372 ****
8757 C1    -12.027476  -17.030853   -3.482006 C    1409 MOH     0.1166 ****
8758 HC2   -11.665478  -17.762026   -4.205376 H    1409 MOH     0.0372 ****
8759 HC3   -13.016477  -16.658531   -3.752121 H    1409 MOH     0.0372 ****
8760 O1    -12.090985  -17.604442   -2.197193 O    1409 MOH    -0.6497 ****
8761 HO1   -12.366958  -16.920626   -1.582717 H    1409 MOH     0.4215 ****
8762 HC1   -15.386500  -14.675261  -20.479439 H    1410 MOH     0.0372 ****
8763 C1    -15.967314  -14.293957  -19.639396 C    1410 MOH     0.1166 ****
8764 HC2   -15.669979  -13.286808  -19.347361 H    1410 MOH     0.0372 ****
8765 HC3   -15.759468  -14.949195  -18.792989 H    1410 MOH     0.0372 ****
8766 O1    -17.346604  -14.337639  -19.924360 O    1410 MOH    -0.6497 ****
8767 HO1   -17.751904  -15.012474  -19.374938 H    1410 MOH     0.4215 ****
8768 HC1   -10.588719  -27.464047  -13.834049 H    1411 MOH     0.0372 ****
8769 C1    -10.605462  -28.471195  -14.251949 C    1411 MOH     0.1166 ****
8770 HC2   -10.103745  -29.129700  -13.544135 H    1411 MOH     0.0372 ****
8771 HC3   -10.054093  -28.499772  -15.192401 H    1411 MOH     0.0372 ****
8772 O1    -11.948379  -28.906796  -14.401149 O    1411 MOH    -0.6497 ****
8773 HO1   -12.440282  -28.645925  -13.618382 H    1411 MOH     0.4215 ****
8774 HC1   -15.788913  -28.426288  -10.876221 H    1412 MOH     0.0372 ****
8775 C1    -15.034894  -29.179914  -11.103910 C    1412 MOH     0.1166 ****
8776 HC2   -15.521023  -30.069487  -11.503425 H    1412 MOH     0.0372 ****
8777 HC3   -14.545878  -29.469362  -10.174064 H    1412 MOH     0.0372 ****
8778 O1    -14.100741  -28.637760  -12.048605 O    1412 MOH    -0.6497 ****
8779 HO1   -13.884235  -27.740022  -11.789096 H    1412 MOH     0.4215 ****
8780 HC1   -10.501539  -18.858173  -19.165634 H    1413 MOH     0.0372 ****
8781 C1    -10.081228  -17.974723  -18.684802 C    1413 MOH     0.1166 ****
8782 HC2    -9.827772  -17.232936  -19.442113 H    1413 MOH     0.0372 ****
8783 HC3    -9.194418  -18.257639  -18.118409 H    1413 MOH     0.0372 ****
8784 O1    -11.086395  -17.478293  -17.861729 O    1413 MOH    -0.6497 ****
8785 HO1   -10.730170  -17.281926  -16.992695 H    1413 MOH     0.4215 ****
8786 HC1   -16.150334  -16.550345   -6.589740 H    1414 MOH     0.0372 ****
8787 C1    -16.193058  -15.676285   -7.239571 C    1414 MOH     0.1166 ****
8788 HC2   -15.392274  -14.976140   -7.001276 H    1414 MOH     0.0372 ****
8789 HC3   -17.132407  -15.160259   -7.044410 H    1414 MOH     0.0372 ****
8790 O1    -16.192481  -16.030645   -8.631158 O    1414 MOH    -0.6497 ****
8791 HO1   -16.083362  -15.238235   -9.162195 H    1414 MOH     0.4215 ****
8792 HC1   -11.041939  -28.396486   -6.061531 H    1415 MOH     0.0372 ****
8793 C1    -10.966884  -27.354636   -6.371244 C    1415 MOH     0.1166 ****
8794 HC2    -9.928231  -27.130099   -6.614489 H    1415 MOH     0.0372 ****
8795 HC3   -11.328882  -26.753286   -5.536151 H    1415 MOH     0.0372 ****
8796 O1    -11.854848  -27.197052   -7.447461 O    1415 MOH    -0.6497 ****
8797 HO1   -11.487654  -27.717569   -8.165174 H    1415 MOH     0.4215 ****
8798 HC1   -23.377028  -20.079651  -12.507517 H    1416 MOH     0.0372 ****
8799 C1    -23.616628  -20.712436  -11.653332 C    1416 MOH     0.1166 ****
8800 HC2   -24.662209  -20.587921  -11.372611 H    1416 MOH     0.0372 ****
8801 HC3   -22.984430  -20.405025  -10.819653 H    1416 MOH     0.0372 ****
8802 O1    -23.314674  -22.062513  -11.969409 O    1416 MOH    -0.6497 ****
8803 HO1   -23.777131  -22.335631  -12.764904 H    1416 MOH     0.4215 ****
8804 HC1   -26.871729  -18.241718  -12.342054 H    1417 MOH     0.0372 ****
8805 C1    -26.009168  -17.778764  -12.821472 C    1417 MOH     0.1166 ****
8806 HC2   -25.222239  -17.664046  -12.075475 H    1417 MOH     0.0372 ****
8807 HC3   -26.326133  -16.786721  -13.143913 H    1417 MOH     0.0372 ****
8808 O1    -25.626384  -18.566275  -13.980420 O    1417 MOH    -0.6497 ****
8809 HO1   -26.320359  -18.520143  -14.641565 H    1417 MOH     0.4215 ****
8810 HC1   -20.185436  -22.804300   -6.081330 H    1418 MOH     0.0372 ****
8811 C1    -19.577486  -21.933507   -6.329525 C    1418 MOH     0.1166 ****
8812 HC2   -18.527863  -22.202951   -6.444076 H    1418 MOH     0.0372 ****
8813 HC3   -19.634066  -21.211316   -5.514231 H    1418 MOH     0.0372 ****
8814 O1    -19.972393  -21.371349   -7.539385 O    1418 MOH    -0.6497 ****
8815 HO1   -19.690646  -21.969841   -8.235178 H    1418 MOH     0.4215 ****
8816 HC1   -14.604768  -16.554427  -16.769249 H    1419 MOH     0.0372 ****
8817 C1    -15.619749  -16.937773  -16.873194 C    1419 MOH     0.1166 ****
8818 HC2   -16.340860  -16.120460  -16.851981 H    1419 MOH     0.0372 ****
8819 HC3   -15.854731  -17.632611  -16.067092 H    1419 MOH     0.0372 ****
8820 O1    -15.747344  -17.649758  -18.055477 O    1419 MOH    -0.6497 ****
8821 HO1   -15.026811  -18.282951  -18.087297 H    1419 MOH     0.4215 ****
8822 HC1   -11.730718  -24.836560   -9.509384 H    1420 MOH     0.0372 ****
8823 C1    -12.353102  -23.942088   -9.518576 C    1420 MOH     0.1166 ****
8824 HC2   -11.909119  -23.154986   -8.909050 H    1420 MOH     0.0372 ****
8825 HC3   -13.324782  -24.220106   -9.109162 H    1420 MOH     0.0372 ****
8826 O1    -12.532658  -23.489341  -10.840159 O    1420 MOH    -0.6497 ****
8827 HO1   -11.675293  -23.213774  -11.173206 H    1420 MOH     0.4215 ****
8828 HC1   -19.990291  -18.868787  -15.327459 H    1421 MOH     0.0372 ****
8829 C1    -19.809003  -19.906962  -15.048152 C    1421 MOH     0.1166 ****
8830 HC2   -20.468337  -20.544238  -15.637172 H    1421 MOH     0.0372 ****
8831 HC3   -20.033592  -20.061689  -13.992441 H    1421 MOH     0.0372 ****
8832 O1    -18.478788  -20.302555  -15.289275 O    1421 MOH    -0.6497 ****
8833 HO1   -18.299232  -20.194369  -16.226191 H    1421 MOH     0.4215 ****
8834 HC1   -16.101837  -24.656931  -11.668888 H    1422 MOH     0.0372 ****
8835 C1    -15.648040  -23.777564  -11.212097 C    1422 MOH     0.1166 ****
8836 HC2   -14.810882  -23.460764  -11.834351 H    1422 MOH     0.0372 ****
8837 HC3   -15.344353  -24.026596  -10.195278 H    1422 MOH     0.0372 ****
8838 O1    -16.598358  -22.779806  -11.247453 O    1422 MOH    -0.6497 ****
8839 HO1   -16.926293  -22.724284  -12.148307 H    1422 MOH     0.4215 ****
8840 HC1   -24.269034  -13.184338  -13.998098 H    1423 MOH     0.0372 ****
8841 C1    -25.176629  -13.248025  -13.398472 C    1423 MOH     0.1166 ****
8842 HC2   -25.787465  -14.094731  -13.711013 H    1423 MOH     0.0372 ****
8843 HC3   -25.725689  -12.315994  -13.530701 H    1423 MOH     0.0372 ****
8844 O1    -24.804815  -13.431328  -12.074061 O    1423 MOH    -0.6497 ****
8845 HO1   -24.277694  -14.233944  -12.075475 H    1423 MOH     0.4215 ****
8846 HC1    -8.738889  -21.337873   -6.292048 H    1424 MOH     0.0372 ****
8847 C1     -8.991769  -20.473203   -5.678280 C    1424 MOH     0.1166 ****
8848 HC2    -8.184055  -20.289899   -4.970466 H    1424 MOH     0.0372 ****
8849 HC3    -9.909755  -20.705904   -5.139464 H    1424 MOH     0.0372 ****
8850 O1     -9.184026  -19.364809   -6.534586 O    1424 MOH    -0.6497 ****
8851 HO1    -9.869341  -19.635885   -7.149769 H    1424 MOH     0.4215 ****
8852 HC1   -12.479541  -28.597344   -9.826168 H    1425 MOH     0.0372 ****
8853 C1    -11.656817  -29.288100  -10.011430 C    1425 MOH     0.1166 ****
8854 HC2   -11.381421  -29.166850  -11.058655 H    1425 MOH     0.0372 ****
8855 HC3   -11.965122  -30.327908   -9.904657 H    1425 MOH     0.0372 ****
8856 O1    -10.566780  -28.977423   -9.126839 O    1425 MOH    -0.6497 ****
8857 HO1    -9.955943  -29.717985   -9.114111 H    1425 MOH     0.4215 ****
8858 HC1    -7.645388  -27.639593  -10.891071 H    1426 MOH     0.0372 ****
8859 C1     -8.476772  -26.956186  -11.060776 C    1426 MOH     0.1166 ****
8860 HC2    -9.398800  -27.416281  -10.703687 H    1426 MOH     0.0372 ****
8861 HC3    -8.547209  -26.767983  -12.132043 H    1426 MOH     0.0372 ****
8862 O1     -8.148837  -25.735523  -10.408824 O    1426 MOH    -0.6497 ****
8863 HO1    -7.535691  -25.932707   -9.696767 H    1426 MOH     0.4215 ****
8864 HC1   -15.138817  -25.410149   -2.407911 H    1427 MOH     0.0372 ****
8865 C1    -16.030246  -24.783488   -2.439731 C    1427 MOH     0.1166 ****
8866 HC2   -16.918788  -25.414232   -2.480036 H    1427 MOH     0.0372 ****
8867 HC3   -16.021008  -24.165400   -3.337756 H    1427 MOH     0.0372 ****
8868 O1    -16.019853  -23.935965   -1.318259 O    1427 MOH    -0.6497 ****
8869 HO1   -15.264102  -23.355844   -1.434932 H    1427 MOH     0.4215 ****
8870 HC1    -7.885565  -24.813290  -14.868546 H    1428 MOH     0.0372 ****
8871 C1     -8.895351  -25.134174  -15.124519 C    1428 MOH     0.1166 ****
8872 HC2    -9.592790  -24.703472  -14.405391 H    1428 MOH     0.0372 ****
8873 HC3    -8.976757  -26.220522  -15.089871 H    1428 MOH     0.0372 ****
8874 O1     -9.250421  -24.674894  -16.396604 O    1428 MOH    -0.6497 ****
8875 HO1    -8.651709  -25.082326  -17.025929 H    1428 MOH     0.4215 ****
8876 HC1   -13.481822  -24.148254   -3.821417 H    1429 MOH     0.0372 ****
8877 C1    -13.257232  -23.082318   -3.771213 C    1429 MOH     0.1166 ****
8878 HC2   -13.616344  -22.534448   -4.642368 H    1429 MOH     0.0372 ****
8879 HC3   -12.171236  -23.035777   -3.843337 H    1429 MOH     0.0372 ****
8880 O1    -13.618076  -22.484234   -2.504784 O    1429 MOH    -0.6497 ****
8881 HO1   -13.690245  -21.535465   -2.630649 H    1429 MOH     0.4215 ****
8882 HC1   -12.082324  -17.704871  -13.594340 H    1430 MOH     0.0372 ****
8883 C1    -12.574804  -17.268454  -14.463374 C    1430 MOH     0.1166 ****
8884 HC2   -13.517040  -16.781005  -14.213058 H    1430 MOH     0.0372 ****
8885 HC3   -12.827106  -18.102913  -15.118155 H    1430 MOH     0.0372 ****
8886 O1    -11.737069  -16.343363  -15.163410 O    1430 MOH    -0.6497 ****
8887 HO1   -12.278046  -15.643626  -15.535348 H    1430 MOH     0.4215 ****
8888 HC1   -13.207003  -24.540989  -13.948600 H    1431 MOH     0.0372 ****
8889 C1    -12.543627  -25.362793  -13.679193 C    1431 MOH     0.1166 ****
8890 HC2   -11.527491  -24.976590  -13.601411 H    1431 MOH     0.0372 ****
8891 HC3   -12.557484  -26.145405  -14.437918 H    1431 MOH     0.0372 ****
8892 O1    -12.921792  -25.789820  -12.392258 O    1431 MOH    -0.6497 ****
8893 HO1   -12.868098  -25.020680  -11.820916 H    1431 MOH     0.4215 ****
8894 HC1    -9.427091  -18.341738   -9.845260 H    1432 MOH     0.0372 ****
8895 C1     -9.766573  -19.087608  -10.564387 C    1432 MOH     0.1166 ****
8896 HC2   -10.272909  -19.924925  -10.082848 H    1432 MOH     0.0372 ****
8897 HC3    -8.879763  -19.484425  -11.059362 H    1432 MOH     0.0372 ****
8898 O1    -10.607772  -18.467071  -11.518982 O    1432 MOH    -0.6497 ****
8899 HO1   -10.078342  -17.782030  -11.934760 H    1432 MOH     0.4215 ****
8900 HC1   -16.058536  -20.845525  -15.682426 H    1433 MOH     0.0372 ****
8901 C1    -15.402088  -20.569958  -14.857233 C    1433 MOH     0.1166 ****
8902 HC2   -15.948839  -20.605883  -13.913952 H    1433 MOH     0.0372 ****
8903 HC3   -15.055678  -19.547296  -15.007846 H    1433 MOH     0.0372 ****
8904 O1    -14.283184  -21.441976  -14.792179 O    1433 MOH    -0.6497 ****
8905 HO1   -13.678121  -21.115377  -14.121842 H    1433 MOH     0.4215 ****
8906 HC1   -12.282088  -16.130666   -7.914858 H    1434 MOH     0.0372 ****
8907 C1    -12.593857  -16.549528   -6.957436 C    1434 MOH     0.1166 ****
8908 HC2   -13.120978  -15.803251   -6.364880 H    1434 MOH     0.0372 ****
8909 HC3   -11.701273  -16.883067   -6.429227 H    1434 MOH     0.0372 ****
8910 O1    -13.408498  -17.663638   -7.184417 O    1434 MOH    -0.6497 ****
8911 HO1   -14.094390  -17.422363   -7.810207 H    1434 MOH     0.4215 ****
8912 HC1   -19.602312  -10.736481  -15.634343 H    1435 MOH     0.0372 ****
8913 C1    -20.509906  -10.356810  -16.103862 C    1435 MOH     0.1166 ****
8914 HC2   -20.379425  -10.376814  -17.186443 H    1435 MOH     0.0372 ****
8915 HC3   -20.653089   -9.325983  -15.782129 H    1435 MOH     0.0372 ****
8916 O1    -21.650173  -11.150037  -15.729803 O    1435 MOH    -0.6497 ****
8917 HO1   -22.423245  -10.645033  -15.992139 H    1435 MOH     0.4215 ****
8918 HC1   -17.444754  -19.206408   -9.122597 H    1436 MOH     0.0372 ****
8919 C1    -16.862785  -18.963909  -10.012137 C    1436 MOH     0.1166 ****
8920 HC2   -16.899158  -19.785713  -10.727022 H    1436 MOH     0.0372 ****
8921 HC3   -15.835679  -18.820614   -9.674847 H    1436 MOH     0.0372 ****
8922 O1    -17.328706  -17.719568  -10.543881 O    1436 MOH    -0.6497 ****
8923 HO1   -16.913014  -17.042284  -10.005773 H    1436 MOH     0.4215 ****
8924 HC1   -19.950454  -23.772665  -11.451099 H    1437 MOH     0.0372 ****
8925 C1    -19.787641  -23.996794  -10.396803 C    1437 MOH     0.1166 ****
8926 HC2   -19.220106  -24.923517  -10.304879 H    1437 MOH     0.0372 ****
8927 HC3   -20.771446  -24.114369   -9.942841 H    1437 MOH     0.0372 ****
8928 O1    -19.094821  -22.920243   -9.804955 O    1437 MOH    -0.6497 ****
8929 HO1   -18.256508  -22.829612  -10.263160 H    1437 MOH     0.4215 ****
8930 HC1    -6.141390  -30.210741  -11.496354 H    1438 MOH     0.0372 ****
8931 C1     -5.757452  -29.613882  -12.323669 C    1438 MOH     0.1166 ****
8932 HC2    -5.069828  -30.231153  -12.902082 H    1438 MOH     0.0372 ****
8933 HC3    -5.256312  -28.752070  -11.881727 H    1438 MOH     0.0372 ****
8934 O1     -6.822663  -29.174199  -13.110679 O    1438 MOH    -0.6497 ****
8935 HO1    -7.352094  -29.930274  -13.372308 H    1438 MOH     0.4215 ****
8936 HC1   -15.675175  -21.214582   -6.895917 H    1439 MOH     0.0372 ****
8937 C1    -15.611667  -22.137631   -7.472209 C    1439 MOH     0.1166 ****
8938 HC2   -14.579942  -22.341755   -7.757881 H    1439 MOH     0.0372 ****
8939 HC3   -16.228854  -22.025771   -8.363164 H    1439 MOH     0.0372 ****
8940 O1    -16.129550  -23.190912   -6.707120 O    1439 MOH    -0.6497 ****
8941 HO1   -15.879557  -24.015573   -7.131384 H    1439 MOH     0.4215 ****
8942 HC1    -6.249355  -24.754094  -12.760661 H    1440 MOH     0.0372 ****
8943 C1     -5.609073  -25.629379  -12.651767 C    1440 MOH     0.1166 ****
8944 HC2    -5.759184  -26.030279  -11.649089 H    1440 MOH     0.0372 ****
8945 HC3    -4.570420  -25.316660  -12.757833 H    1440 MOH     0.0372 ****
8946 O1     -5.988392  -26.571207  -13.655151 O    1440 MOH    -0.6497 ****
8947 HO1    -6.059406  -27.444451  -13.262707 H    1440 MOH     0.4215 ****
8948 HC1    -8.113619  -22.540572   -8.339829 H    1441 MOH     0.0372 ****
8949 C1     -7.255099  -22.178864   -8.905515 C    1441 MOH     0.1166 ****
8950 HC2    -7.603241  -21.659572   -9.797884 H    1441 MOH     0.0372 ****
8951 HC3    -6.625787  -23.019447   -9.198964 H    1441 MOH     0.0372 ****
8952 O1     -6.505698  -21.289291   -8.110020 O    1441 MOH    -0.6497 ****
8953 HO1    -6.338267  -21.707746   -7.262199 H    1441 MOH     0.4215 ****
8954 HC1    -7.314566  -21.219481  -18.271851 H    1442 MOH     0.0372 ****
8955 C1     -7.761435  -20.805517  -19.175534 C    1442 MOH     0.1166 ****
8956 HC2    -8.789118  -20.486675  -19.003707 H    1442 MOH     0.0372 ****
8957 HC3    -7.730835  -21.577923  -19.944866 H    1442 MOH     0.0372 ****
8958 O1     -6.950835  -19.741214  -19.563735 O    1442 MOH    -0.6497 ****
8959 HO1    -6.768970  -19.194977  -18.795817 H    1442 MOH     0.4215 ****
8960 HC1   -22.366665  -16.278452  -13.625453 H    1443 MOH     0.0372 ****
8961 C1    -22.737324  -16.675269  -12.680758 C    1443 MOH     0.1166 ****
8962 HC2   -21.882845  -16.798152  -12.015371 H    1443 MOH     0.0372 ****
8963 HC3   -23.209019  -17.650982  -12.796724 H    1443 MOH     0.0372 ****
8964 O1    -23.592379  -15.739972  -12.118608 O    1443 MOH    -0.6497 ****
8965 HO1   -23.407627  -15.738339  -11.176742 H    1443 MOH     0.4215 ****
8966 HC1   -23.078538  -20.953303   -7.887281 H    1444 MOH     0.0372 ****
8967 C1    -23.144933  -21.213765   -6.830864 C    1444 MOH     0.1166 ****
8968 HC2   -23.036968  -22.291949   -6.707120 H    1444 MOH     0.0372 ****
8969 HC3   -24.128738  -20.899006   -6.482260 H    1444 MOH     0.0372 ****
8970 O1    -22.161128  -20.494840   -6.107493 O    1444 MOH    -0.6497 ****
8971 HO1   -21.338404  -20.603842   -6.590447 H    1444 MOH     0.4215 ****
8972 HC1   -15.531992  -18.392361   -3.038650 H    1445 MOH     0.0372 ****
8973 C1    -15.094361  -19.295815   -3.463621 C    1445 MOH     0.1166 ****
8974 HC2   -14.850719  -19.100672   -4.507311 H    1445 MOH     0.0372 ****
8975 HC3   -15.799883  -20.122109   -3.370283 H    1445 MOH     0.0372 ****
8976 O1    -13.958136  -19.593428   -2.716209 O    1445 MOH    -0.6497 ****
8977 HO1   -13.330556  -18.867562   -2.764293 H    1445 MOH     0.4215 ****
8978 HC1   -18.751875  -25.590187   -3.671511 H    1446 MOH     0.0372 ****
8979 C1    -19.162371  -26.546713   -3.348363 C    1446 MOH     0.1166 ****
8980 HC2   -18.383525  -27.309320   -3.327150 H    1446 MOH     0.0372 ****
8981 HC3   -19.947567  -26.825546   -4.050520 H    1446 MOH     0.0372 ****
8982 O1    -19.758196  -26.402193   -2.092541 O    1446 MOH    -0.6497 ****
8983 HO1   -19.137545  -25.953120   -1.514128 H    1446 MOH     0.4215 ****
8984 HC1   -22.368974  -14.864688  -16.700660 H    1447 MOH     0.0372 ****
8985 C1    -21.802594  -14.559726  -15.820312 C    1447 MOH     0.1166 ****
8986 HC2   -21.416924  -15.453382  -15.328873 H    1447 MOH     0.0372 ****
8987 HC3   -22.456731  -14.035944  -15.123812 H    1447 MOH     0.0372 ****
8988 O1    -20.707937  -13.745271  -16.225484 O    1447 MOH    -0.6497 ****
8989 HO1   -21.058966  -12.869987  -16.402261 H    1447 MOH     0.4215 ****
8990 HC1   -13.551104  -20.606292   -6.840763 H    1448 MOH     0.0372 ****
8991 C1    -12.625611  -20.306637   -6.347203 C    1448 MOH     0.1166 ****
8992 HC2   -12.181629  -21.160693   -5.835257 H    1448 MOH     0.0372 ****
8993 HC3   -12.871562  -19.554644   -5.597669 H    1448 MOH     0.0372 ****
8994 O1    -11.743420  -19.807350   -7.373215 O    1448 MOH    -0.6497 ****
8995 HO1   -11.933945  -18.869195   -7.448168 H    1448 MOH     0.4215 ****
8996 HC1   -15.134198  -16.737323  -11.492819 H    1449 MOH     0.0372 ****
8997 C1    -14.188498  -16.394394  -11.072797 C    1449 MOH     0.1166 ****
8998 HC2   -14.302236  -15.419905  -10.596914 H    1449 MOH     0.0372 ****
8999 HC3   -13.458727  -16.280901  -11.874656 H    1449 MOH     0.0372 ****
9000 O1    -13.746825  -17.316627  -10.100525 O    1449 MOH    -0.6497 ****
9001 HO1   -12.915441  -17.704871  -10.382661 H    1449 MOH     0.4215 ****
9002 HC1   -10.316325   -2.062185  -16.150531 H    1450 MOH     0.0372 ****
9003 C1    -11.352669   -1.923380  -15.843647 C    1450 MOH     0.1166 ****
9004 HC2   -11.916163   -1.559223  -16.702074 H    1450 MOH     0.0372 ****
9005 HC3   -11.422529   -1.173428  -15.055223 H    1450 MOH     0.0372 ****
9006 O1    -11.878058   -3.166088  -15.426454 O    1450 MOH    -0.6497 ****
9007 HO1   -12.640738   -3.013811  -14.864304 H    1450 MOH     0.4215 ****
9008 HC1   -15.817896  -12.603156  -12.059211 H    1451 MOH     0.0372 ****
9009 C1    -16.618681  -12.997115  -11.433422 C    1451 MOH     0.1166 ****
9010 HC2   -17.184484  -13.727471  -12.012542 H    1451 MOH     0.0372 ****
9011 HC3   -17.291294  -12.220219  -11.072090 H    1451 MOH     0.0372 ****
9012 O1    -16.121582  -13.738086  -10.389025 O    1451 MOH    -0.6497 ****
9013 HO1   -15.577141  -13.142043   -9.870009 H    1451 MOH     0.4215 ****
9014 HC1    -4.087293  -17.468659  -20.965928 H    1452 MOH     0.0372 ****
9015 C1     -4.274355  -18.454578  -20.540957 C    1452 MOH     0.1166 ****
9016 HC2    -4.666376  -18.359865  -19.528380 H    1452 MOH     0.0372 ****
9017 HC3    -3.317108  -18.971012  -20.472368 H    1452 MOH     0.0372 ****
9018 O1     -5.115554  -19.258419  -21.390192 O    1452 MOH    -0.6497 ****
9019 HO1    -5.831468  -19.604614  -20.852791 H    1452 MOH     0.4215 ****
9020 HC1    -1.456886  -16.996724  -14.329024 H    1453 MOH     0.0372 ****
9021 C1     -2.305590  -16.561939  -13.800815 C    1453 MOH     0.1166 ****
9022 HC2    -2.441845  -15.534787  -14.138812 H    1453 MOH     0.0372 ****
9023 HC3    -2.141046  -16.574187  -12.723184 H    1453 MOH     0.0372 ****
9024 O1     -3.471261  -17.260044  -14.134569 O    1453 MOH    -0.6497 ****
9025 HO1    -3.444125  -18.060619  -13.604947 H    1453 MOH     0.4215 ****
9026 HC1     6.619667   -8.226326  -17.948703 H    1454 MOH     0.0372 ****
9027 C1      6.425100   -7.484947  -17.173714 C    1454 MOH     0.1166 ****
9028 HC2     5.361044   -7.442897  -16.941076 H    1454 MOH     0.0372 ****
9029 HC3     6.726477   -6.496578  -17.520904 H    1454 MOH     0.0372 ****
9030 O1      7.094827   -7.815220  -15.962440 O    1454 MOH    -0.6497 ****
9031 HO1     6.877166   -8.709692  -15.690204 H    1454 MOH     0.4215 ****
9032 HC1    -9.266703   -3.513507  -11.481505 H    1455 MOH     0.0372 ****
9033 C1     -8.662794   -2.961964  -10.760963 C    1455 MOH     0.1166 ****
9034 HC2    -7.851040   -3.597198  -10.407410 H    1455 MOH     0.0372 ****
9035 HC3    -9.311159   -2.676190   -9.932234 H    1455 MOH     0.0372 ****
9036 O1     -8.158190   -1.838056  -11.416451 O    1455 MOH    -0.6497 ****
9037 HO1    -7.345281   -1.576369  -10.977338 H    1455 MOH     0.4215 ****
9038 HC1    -2.562511   -9.920964  -23.942848 H    1456 MOH     0.0372 ****
9039 C1     -3.354636  -10.453320  -23.416760 C    1456 MOH     0.1166 ****
9040 HC2    -3.327500  -10.195715  -22.358221 H    1456 MOH     0.0372 ****
9041 HC3    -3.188936  -11.520889  -23.558889 H    1456 MOH     0.0372 ****
9042 O1     -4.583237  -10.037723  -23.972546 O    1456 MOH    -0.6497 ****
9043 HO1    -5.277790  -10.396574  -23.414639 H    1456 MOH     0.4215 ****
9044 HC1    -1.866227   -2.029933  -25.062198 H    1457 MOH     0.0372 ****
9045 C1     -1.328714   -1.687413  -25.946788 C    1457 MOH     0.1166 ****
9046 HC2    -1.656649   -2.261410  -26.813701 H    1457 MOH     0.0372 ****
9047 HC3    -0.269276   -1.871941  -25.768597 H    1457 MOH     0.0372 ****
9048 O1     -1.589099   -0.306717  -26.215489 O    1457 MOH    -0.6497 ****
9049 HO1    -1.329868   -0.101776  -27.116343 H    1457 MOH     0.4215 ****
9050 HC1   -11.204868   -8.835024   -7.096736 H    1458 MOH     0.0372 ****
9051 C1    -12.225045   -9.127738   -6.848541 C    1458 MOH     0.1166 ****
9052 HC2   -12.386126   -9.070175   -5.773032 H    1458 MOH     0.0372 ****
9053 HC3   -12.433469  -10.149992   -7.165325 H    1458 MOH     0.0372 ****
9054 O1    -13.111278   -8.235307   -7.449582 O    1458 MOH    -0.6497 ****
9055 HO1   -12.659790   -7.858902   -8.209015 H    1458 MOH     0.4215 ****
9056 HC1    -7.407635   -4.886855  -21.993354 H    1459 MOH     0.0372 ****
9057 C1     -7.362024   -5.341643  -22.983304 C    1459 MOH     0.1166 ****
9058 HC2    -6.444614   -5.920539  -23.092198 H    1459 MOH     0.0372 ****
9059 HC3    -7.372416   -4.563930  -23.746272 H    1459 MOH     0.0372 ****
9060 O1     -8.465340   -6.178144  -23.200386 O    1459 MOH    -0.6497 ****
9061 HO1    -8.206110   -7.065676  -22.942999 H    1459 MOH     0.4215 ****
9062 HC1     0.699518   -9.443722  -23.498078 H    1460 MOH     0.0372 ****
9063 C1      0.898126   -8.483114  -23.023609 C    1460 MOH     0.1166 ****
9064 HC2     1.962760   -8.265926  -23.107047 H    1460 MOH     0.0372 ****
9065 HC3     0.668918   -8.518223  -21.958706 H    1460 MOH     0.0372 ****
9066 O1      0.104847   -7.487396  -23.674854 O    1460 MOH    -0.6497 ****
9067 HO1     0.152190   -6.711316  -23.111290 H    1460 MOH     0.4215 ****
9068 HC1   -16.605979   -6.048321  -10.892485 H    1461 MOH     0.0372 ****
9069 C1    -15.565594   -6.020968  -11.218461 C    1461 MOH     0.1166 ****
9070 HC2   -14.981316   -6.660693  -10.555902 H    1461 MOH     0.0372 ****
9071 HC3   -15.224380   -4.987284  -11.164721 H    1461 MOH     0.0372 ****
9072 O1    -15.498621   -6.503110  -12.541458 O    1461 MOH    -0.6497 ****
9073 HO1   -16.093292   -7.255919  -12.585299 H    1461 MOH     0.4215 ****
9074 HC1   -13.725579  -10.730521  -15.052394 H    1462 MOH     0.0372 ****
9075 C1    -12.811056  -10.424334  -15.560097 C    1462 MOH     0.1166 ****
9076 HC2   -12.215808   -9.769912  -14.922994 H    1462 MOH     0.0372 ****
9077 HC3   -13.086452   -9.878098  -16.462365 H    1462 MOH     0.0372 ****
9078 O1    -12.108998  -11.563755  -15.958198 O    1462 MOH    -0.6497 ****
9079 HO1   -11.174268  -11.364938  -15.868395 H    1462 MOH     0.4215 ****
9080 HC1    -0.459224  -14.910983  -18.486105 H    1463 MOH     0.0372 ****
9081 C1     -0.411882  -14.187567  -17.671518 C    1463 MOH     0.1166 ****
9082 HC2    -1.205161  -13.460069  -17.842637 H    1463 MOH     0.0372 ****
9083 HC3     0.548829  -13.673991  -17.718187 H    1463 MOH     0.0372 ****
9084 O1     -0.597211  -14.829333  -16.377512 O    1463 MOH    -0.6497 ****
9085 HO1    -0.788891  -14.153683  -15.722024 H    1463 MOH     0.4215 ****
9086 HC1   -16.779762  -11.068142  -19.908097 H    1464 MOH     0.0372 ****
9087 C1    -16.737038  -10.826459  -18.846022 C    1464 MOH     0.1166 ****
9088 HC2   -15.700117  -10.888513  -18.515096 H    1464 MOH     0.0372 ****
9089 HC3   -17.334595  -11.528238  -18.264073 H    1464 MOH     0.0372 ****
9090 O1    -17.170628   -9.532720  -18.576614 O    1464 MOH    -0.6497 ****
9091 HO1   -17.940236   -9.341252  -19.117551 H    1464 MOH     0.4215 ****
9092 HC1   -19.383034   -7.130587  -12.192854 H    1465 MOH     0.0372 ****
9093 C1    -19.817779   -8.016078  -11.729700 C    1465 MOH     0.1166 ****
9094 HC2   -20.230007   -8.690912  -12.479940 H    1465 MOH     0.0372 ****
9095 HC3   -20.639926   -7.729896  -11.072797 H    1465 MOH     0.0372 ****
9096 O1    -18.912494   -8.718673  -10.934204 O    1465 MOH    -0.6497 ****
9097 HO1   -19.439037   -9.436374  -10.573580 H    1465 MOH     0.4215 ****
9098 HC1    -5.793941   -1.572287  -14.423776 H    1466 MOH     0.0372 ****
9099 C1     -6.459626   -0.713332  -14.338923 C    1466 MOH     0.1166 ****
9100 HC2    -7.501743   -1.033399  -14.345995 H    1466 MOH     0.0372 ****
9101 HC3    -6.324526   -0.088712  -15.221393 H    1466 MOH     0.0372 ****
9102 O1     -6.233882    0.083568  -13.135428 O    1466 MOH    -0.6497 ****
9103 HO1    -6.306628   -0.483489  -12.365388 H    1466 MOH     0.4215 ****
9104 HC1    -5.719463  -12.226342   -5.473926 H    1467 MOH     0.0372 ****
9105 C1     -5.419818  -13.273499   -5.488775 C    1467 MOH     0.1166 ****
9106 HC2    -4.785887  -13.462110   -6.355688 H    1467 MOH     0.0372 ****
9107 HC3    -6.287575  -13.927513   -5.567971 H    1467 MOH     0.0372 ****
9108 O1     -4.714873  -13.584584   -4.295179 O    1467 MOH    -0.6497 ****
9109 HO1    -4.280706  -14.432924   -4.413973 H    1467 MOH     0.4215 ****
9110 HC1   -13.470390   -8.958723  -19.521309 H    1468 MOH     0.0372 ****
9111 C1    -14.010790   -8.089154  -19.894661 C    1468 MOH     0.1166 ****
9112 HC2   -14.454195   -8.418611  -20.834406 H    1468 MOH     0.0372 ****
9113 HC3   -13.287947   -7.286130  -20.041033 H    1468 MOH     0.0372 ****
9114 O1    -15.002100   -7.750716  -18.901176 O    1468 MOH    -0.6497 ****
9115 HO1   -15.637763   -8.464743  -18.818445 H    1468 MOH     0.4215 ****
9116 HC1     1.086342  -17.573987  -17.881528 H    1469 MOH     0.0372 ****
9117 C1      0.406224  -18.142677  -17.247254 C    1469 MOH     0.1166 ****
9118 HC2     0.760717  -18.105526  -16.216999 H    1469 MOH     0.0372 ****
9119 HC3     0.351376  -19.179219  -17.578887 H    1469 MOH     0.0372 ****
9120 O1     -0.826419  -17.519690  -17.329278 O    1469 MOH    -0.6497 ****
9121 HO1    -0.724228  -16.626851  -16.993402 H    1469 MOH     0.4215 ****
9122 HC1    -8.853320    2.681660  -11.690102 H    1470 MOH     0.0372 ****
9123 C1     -9.307695    2.979682  -12.634796 C    1470 MOH     0.1166 ****
9124 HC2   -10.388494    2.844960  -12.586713 H    1470 MOH     0.0372 ****
9125 HC3    -8.885074    2.355062  -13.422513 H    1470 MOH     0.0372 ****
9126 O1     -9.025948    4.337107  -12.894304 O    1470 MOH    -0.6497 ****
9127 HO1    -9.295570    4.531433  -13.795158 H    1470 MOH     0.4215 ****
9128 HC1    -5.045695  -11.110600  -12.897840 H    1471 MOH     0.0372 ****
9129 C1     -5.185991  -11.264918  -13.966985 C    1471 MOH     0.1166 ****
9130 HC2    -5.382290  -10.310433  -14.456303 H    1471 MOH     0.0372 ****
9131 HC3    -6.020262  -11.943835  -14.143055 H    1471 MOH     0.0372 ****
9132 O1     -4.010506  -11.819319  -14.518529 O    1471 MOH    -0.6497 ****
9133 HO1    -3.363873  -11.920156  -13.816371 H    1471 MOH     0.4215 ****
9134 HC1    -2.282496   -3.074232  -11.607370 H    1472 MOH     0.0372 ****
9135 C1     -1.799832   -4.040148  -11.754448 C    1472 MOH     0.1166 ****
9136 HC2    -2.572904   -4.794182  -11.902233 H    1472 MOH     0.0372 ****
9137 HC3    -1.235183   -4.282647  -10.855008 H    1472 MOH     0.0372 ****
9138 O1     -0.891660   -4.012387  -12.877334 O    1472 MOH    -0.6497 ****
9139 HO1    -0.180364   -3.408179  -12.648231 H    1472 MOH     0.4215 ****
9140 HC1    -7.589500  -11.316765  -20.266600 H    1473 MOH     0.0372 ****
9141 C1     -7.750581  -12.329629  -19.898197 C    1473 MOH     0.1166 ****
9142 HC2    -8.501713  -12.284722  -19.110480 H    1473 MOH     0.0372 ****
9143 HC3    -6.825666  -12.730121  -19.483125 H    1473 MOH     0.0372 ****
9144 O1     -8.202069  -13.176336  -20.954614 O    1473 MOH    -0.6497 ****
9145 HO1    -7.797346  -14.034474  -20.804708 H    1473 MOH     0.4215 ****
9146 HC1     1.416009  -17.199623  -12.652474 H    1474 MOH     0.0372 ****
9147 C1      1.249733  -17.112666  -11.578378 C    1474 MOH     0.1166 ****
9148 HC2     1.321901  -16.056528  -11.318870 H    1474 MOH     0.0372 ****
9149 HC3     2.036661  -17.666659  -11.065726 H    1474 MOH     0.0372 ****
9150 O1     -0.075864  -17.631550  -11.344326 O    1474 MOH    -0.6497 ****
9151 HO1    -0.387056  -17.282906  -10.505697 H    1474 MOH     0.4215 ****
9152 HC1    -3.788226    1.727176  -20.479439 H    1475 MOH     0.0372 ****
9153 C1     -4.369040    2.108480  -19.639396 C    1475 MOH     0.1166 ****
9154 HC2    -4.071705    3.115628  -19.347361 H    1475 MOH     0.0372 ****
9155 HC3    -4.161194    1.453241  -18.792989 H    1475 MOH     0.0372 ****
9156 O1     -5.748330    2.064797  -19.924360 O    1475 MOH    -0.6497 ****
9157 HO1    -6.153630    1.389963  -19.374938 H    1475 MOH     0.4215 ****
9158 HC1   -15.210524   -8.629675   -9.453523 H    1476 MOH     0.0372 ****
9159 C1    -15.601967   -9.398815  -10.118203 C    1476 MOH     0.1166 ****
9160 HC2   -15.102559   -9.364930  -11.086232 H    1476 MOH     0.0372 ****
9161 HC3   -16.673529   -9.236332  -10.242654 H    1476 MOH     0.0372 ****
9162 O1    -15.461094  -10.665609   -9.533426 O    1476 MOH    -0.6497 ****
9163 HO1   -15.907385  -10.666017   -8.684191 H    1476 MOH     0.4215 ****
9164 HC1     1.009555  -11.061610  -13.834049 H    1477 MOH     0.0372 ****
9165 C1      0.992812  -12.068759  -14.251949 C    1477 MOH     0.1166 ****
9166 HC2     1.494529  -12.727263  -13.544135 H    1477 MOH     0.0372 ****
9167 HC3     1.544181  -12.097336  -15.192401 H    1477 MOH     0.0372 ****
9168 O1     -0.350105  -12.504359  -14.401149 O    1477 MOH    -0.6497 ****
9169 HO1    -0.842008  -12.243489  -13.618382 H    1477 MOH     0.4215 ****
9170 HC1    -4.855747   -7.270616  -14.702376 H    1478 MOH     0.0372 ****
9171 C1     -5.919226   -7.069758  -14.833898 C    1478 MOH     0.1166 ****
9172 HC2    -6.501195   -7.990766  -14.807028 H    1478 MOH     0.0372 ****
9173 HC3    -6.084348   -6.599048  -15.803342 H    1478 MOH     0.0372 ****
9174 O1     -6.369559   -6.179369  -13.854555 O    1478 MOH    -0.6497 ****
9175 HO1    -6.259285   -5.284897  -14.184774 H    1478 MOH     0.4215 ****
9176 HC1    -1.142807   -4.343068  -17.498984 H    1479 MOH     0.0372 ****
9177 C1     -1.546952   -3.997282  -18.450042 C    1479 MOH     0.1166 ****
9178 HC2    -2.479950   -4.520656  -18.662174 H    1479 MOH     0.0372 ****
9179 HC3    -0.825842   -4.142210  -19.254023 H    1479 MOH     0.0372 ****
9180 O1     -1.793481   -2.631283  -18.295893 O    1479 MOH    -0.6497 ****
9181 HO1    -0.969025   -2.175678  -18.107803 H    1479 MOH     0.4215 ****
9182 HC1    -5.375362  -15.598881  -12.295385 H    1480 MOH     0.0372 ****
9183 C1     -5.561269  -15.013045  -13.195532 C    1480 MOH     0.1166 ****
9184 HC2    -5.543371  -15.636849  -14.089315 H    1480 MOH     0.0372 ****
9185 HC3    -4.813600  -14.227575  -13.304426 H    1480 MOH     0.0372 ****
9186 O1     -6.803726  -14.424759  -13.066131 O    1480 MOH    -0.6497 ****
9187 HO1    -7.102216  -14.314124  -13.971935 H    1480 MOH     0.4215 ****
9188 HC1    -4.190639  -12.023851  -10.876221 H    1481 MOH     0.0372 ****
9189 C1     -3.436620  -12.777478  -11.103910 C    1481 MOH     0.1166 ****
9190 HC2    -3.922749  -13.667051  -11.503425 H    1481 MOH     0.0372 ****
9191 HC3    -2.947604  -13.066926  -10.174064 H    1481 MOH     0.0372 ****
9192 O1     -2.502467  -12.235324  -12.048605 O    1481 MOH    -0.6497 ****
9193 HO1    -2.285961  -11.337586  -11.789096 H    1481 MOH     0.4215 ****
9194 HC1    -5.945206   -3.671091  -19.962544 H    1482 MOH     0.0372 ****
9195 C1     -6.182497   -3.957682  -18.937239 C    1482 MOH     0.1166 ****
9196 HC2    -5.420395   -4.620269  -18.527824 H    1482 MOH     0.0372 ****
9197 HC3    -7.135703   -4.486363  -18.956331 H    1482 MOH     0.0372 ****
9198 O1     -6.284111   -2.831324  -18.099317 O    1482 MOH    -0.6497 ****
9199 HO1    -5.510462   -2.274882  -18.218818 H    1482 MOH     0.4215 ****
9200 HC1    -8.254030  -18.653395  -13.610603 H    1483 MOH     0.0372 ****
9201 C1     -8.661062  -17.652779  -13.755560 C    1483 MOH     0.1166 ****
9202 HC2    -9.706644  -17.698502  -14.061030 H    1483 MOH     0.0372 ****
9203 HC3    -8.104497  -17.195132  -14.572269 H    1483 MOH     0.0372 ****
9204 O1     -8.506332  -16.828934  -12.598734 O    1483 MOH    -0.6497 ****
9205 HO1    -8.223431  -15.948750  -12.858949 H    1483 MOH     0.4215 ****
9206 HC1     1.096735   -2.455736  -19.165634 H    1484 MOH     0.0372 ****
9207 C1      1.517046   -1.572287  -18.684802 C    1484 MOH     0.1166 ****
9208 HC2     1.770503   -0.830500  -19.442113 H    1484 MOH     0.0372 ****
9209 HC3     2.403856   -1.855203  -18.118409 H    1484 MOH     0.0372 ****
9210 O1      0.511879   -1.075857  -17.861729 O    1484 MOH    -0.6497 ****
9211 HO1     0.868104   -0.879489  -16.992695 H    1484 MOH     0.4215 ****
9212 HC1    -4.552060   -0.147908   -6.589740 H    1485 MOH     0.0372 ****
9213 C1     -4.594784    0.726151   -7.239571 C    1485 MOH     0.1166 ****
9214 HC2    -3.793999    1.426297   -7.001276 H    1485 MOH     0.0372 ****
9215 HC3    -5.534133    1.242177   -7.044410 H    1485 MOH     0.0372 ****
9216 O1     -4.594207    0.371792   -8.631158 O    1485 MOH    -0.6497 ****
9217 HO1    -4.485088    1.164202   -9.162195 H    1485 MOH     0.4215 ****
9218 HC1    -6.884555  -19.085322  -10.574287 H    1486 MOH     0.0372 ****
9219 C1     -5.808375  -19.077157  -10.743992 C    1486 MOH     0.1166 ****
9220 HC2    -5.388064  -18.216978  -10.224269 H    1486 MOH     0.0372 ****
9221 HC3    -5.604570  -19.016736  -11.813138 H    1486 MOH     0.0372 ****
9222 O1     -5.214858  -20.221885  -10.243361 O    1486 MOH    -0.6497 ****
9223 HO1    -5.676739  -20.483164   -9.444330 H    1486 MOH     0.4215 ****
9224 HC1   -10.238383   -4.417369  -17.975574 H    1487 MOH     0.0372 ****
9225 C1    -10.820930   -5.290204  -17.680003 C    1487 MOH     0.1166 ****
9226 HC2   -10.484912   -6.205088  -18.167200 H    1487 MOH     0.0372 ****
9227 HC3   -11.841107   -5.110166  -18.017293 H    1487 MOH     0.0372 ****
9228 O1    -10.827858   -5.437173  -16.277103 O    1487 MOH    -0.6497 ****
9229 HO1   -11.014342   -4.575361  -15.895973 H    1487 MOH     0.4215 ****
9230 HC1    -5.575125   -8.159373  -19.391201 H    1488 MOH     0.0372 ****
9231 C1     -5.560691   -7.451879  -20.220638 C    1488 MOH     0.1166 ****
9232 HC2    -6.551424   -7.020768  -20.362059 H    1488 MOH     0.0372 ****
9233 HC3    -5.221787   -7.945043  -21.131391 H    1488 MOH     0.0372 ****
9234 O1     -4.683696   -6.400231  -19.913753 O    1488 MOH    -0.6497 ****
9235 HO1    -4.487397   -6.393291  -18.974008 H    1488 MOH     0.4215 ****
9236 HC1    -9.718768  -15.906701   -5.512817 H    1489 MOH     0.0372 ****
9237 C1     -8.726303  -15.885880   -5.963244 C    1489 MOH     0.1166 ****
9238 HC2    -8.203224  -14.974670   -5.673330 H    1489 MOH     0.0372 ****
9239 HC3    -8.786347  -15.941402   -7.049360 H    1489 MOH     0.0372 ****
9240 O1     -7.991336  -16.950592   -5.514938 O    1489 MOH    -0.6497 ****
9241 HO1    -8.438205  -17.746676   -5.810509 H    1489 MOH     0.4215 ****
9242 HC1   -11.778754   -3.677215  -12.507517 H    1490 MOH     0.0372 ****
9243 C1    -12.018354   -4.310000  -11.653332 C    1490 MOH     0.1166 ****
9244 HC2   -13.063935   -4.185484  -11.372611 H    1490 MOH     0.0372 ****
9245 HC3   -11.386155   -4.002589  -10.819653 H    1490 MOH     0.0372 ****
9246 O1    -11.716400   -5.660077  -11.969409 O    1490 MOH    -0.6497 ****
9247 HO1   -12.178857   -5.933195  -12.764904 H    1490 MOH     0.4215 ****
9248 HC1   -14.372211  -11.615603  -21.607274 H    1491 MOH     0.0372 ****
9249 C1    -13.584128  -11.581310  -22.359636 C    1491 MOH     0.1166 ****
9250 HC2   -14.004439  -11.189800  -23.286653 H    1491 MOH     0.0372 ****
9251 HC3   -13.186334  -12.579069  -22.546312 H    1491 MOH     0.0372 ****
9252 O1    -12.577806  -10.681123  -22.009618 O    1491 MOH    -0.6497 ****
9253 HO1   -11.750463  -11.146117  -22.153161 H    1491 MOH     0.4215 ****
9254 HC1   -11.168494  -12.236140  -24.325393 H    1492 MOH     0.0372 ****
9255 C1    -10.738368  -12.806055  -23.500906 C    1492 MOH     0.1166 ****
9256 HC2    -9.962987  -13.449863  -23.915978 H    1492 MOH     0.0372 ****
9257 HC3   -11.483728  -13.454762  -23.040580 H    1492 MOH     0.0372 ****
9258 O1    -10.169101  -11.911583  -22.561161 O    1492 MOH    -0.6497 ****
9259 HO1    -9.754564  -12.450879  -21.884460 H    1492 MOH     0.4215 ****
9260 HC1    -0.821223   -3.520856  -22.040023 H    1493 MOH     0.0372 ****
9261 C1     -0.077596   -4.041781  -22.642478 C    1493 MOH     0.1166 ****
9262 HC2     0.838082   -3.452270  -22.690562 H    1493 MOH     0.0372 ****
9263 HC3    -0.413614   -4.163030  -23.672733 H    1493 MOH     0.0372 ****
9264 O1      0.260732   -5.270608  -22.058408 O    1493 MOH    -0.6497 ****
9265 HO1    -0.443058   -5.542093  -21.465146 H    1493 MOH     0.4215 ****
9266 HC1    -0.105309   -9.197957  -17.380190 H    1494 MOH     0.0372 ****
9267 C1     -0.144568  -10.267567  -17.585251 C    1494 MOH     0.1166 ****
9268 HC2    -0.922837  -10.695820  -16.953804 H    1494 MOH     0.0372 ****
9269 HC3     0.824225  -10.703985  -17.341299 H    1494 MOH     0.0372 ****
9270 O1     -0.433243  -10.559465  -18.953502 O    1494 MOH    -0.6497 ****
9271 HO1    -0.003695  -11.373920  -19.225738 H    1494 MOH     0.4215 ****
9272 HC1     4.056232  -10.517823  -19.626668 H    1495 MOH     0.0372 ****
9273 C1      3.533730   -9.588650  -19.398979 C    1495 MOH     0.1166 ****
9274 HC2     2.501428   -9.801756  -19.120379 H    1495 MOH     0.0372 ****
9275 HC3     3.574145   -8.942393  -20.275085 H    1495 MOH     0.0372 ****
9276 O1      4.221354   -9.025268  -18.332662 O    1495 MOH    -0.6497 ****
9277 HO1     4.683812   -9.740519  -17.890014 H    1495 MOH     0.4215 ****
9278 HC1    -2.543459  -15.303718   -9.986681 H    1496 MOH     0.0372 ****
9279 C1     -2.292311  -15.824235   -9.062493 C    1496 MOH     0.1166 ****
9280 HC2    -2.959151  -16.677882   -8.941577 H    1496 MOH     0.0372 ****
9281 HC3    -2.415287  -15.154299   -8.211843 H    1496 MOH     0.0372 ****
9282 O1     -0.952281  -16.254936   -9.159366 O    1496 MOH    -0.6497 ****
9283 HO1    -0.762333  -16.810562   -8.400641 H    1496 MOH     0.4215 ****
9284 HC1    -1.070638   -8.373295  -20.007798 H    1497 MOH     0.0372 ****
9285 C1     -2.007678   -8.117323  -20.500652 C    1497 MOH     0.1166 ****
9286 HC2    -2.845990   -8.449229  -19.887590 H    1497 MOH     0.0372 ****
9287 HC3    -2.026153   -8.616203  -21.469388 H    1497 MOH     0.0372 ****
9288 O1     -2.038277   -6.733770  -20.717734 O    1497 MOH    -0.6497 ****
9289 HO1    -2.954532   -6.492495  -20.869762 H    1497 MOH     0.4215 ****
9290 HC1    -4.400217  -13.083256  -21.715461 H    1498 MOH     0.0372 ****
9291 C1     -4.094799  -14.063460  -22.082450 C    1498 MOH     0.1166 ****
9292 HC2    -3.145635  -13.983851  -22.612073 H    1498 MOH     0.0372 ****
9293 HC3    -4.861520  -14.455786  -22.749251 H    1498 MOH     0.0372 ****
9294 O1     -3.941224  -14.984060  -21.008355 O    1498 MOH    -0.6497 ****
9295 HO1    -3.091941  -15.418028  -21.116542 H    1498 MOH     0.4215 ****
9296 HC1     1.440835  -15.731562  -15.042495 H    1499 MOH     0.0372 ****
9297 C1      2.312057  -15.228192  -15.461809 C    1499 MOH     0.1166 ****
9298 HC2     2.014144  -14.279015  -15.905165 H    1499 MOH     0.0372 ****
9299 HC3     2.750843  -15.839748  -16.250940 H    1499 MOH     0.0372 ****
9300 O1      3.280851  -14.953033  -14.476102 O    1499 MOH    -0.6497 ****
9301 HO1     3.710977  -15.791166  -14.292961 H    1499 MOH     0.4215 ****
9302 HC1   -15.273455   -1.839281  -12.342054 H    1500 MOH     0.0372 ****
9303 C1    -14.410894   -1.376328  -12.821472 C    1500 MOH     0.1166 ****
9304 HC2   -13.623965   -1.261610  -12.075475 H    1500 MOH     0.0372 ****
9305 HC3   -14.727859   -0.384284  -13.143913 H    1500 MOH     0.0372 ****
9306 O1    -14.028110   -2.163839  -13.980420 O    1500 MOH    -0.6497 ****
9307 HO1   -14.722085   -2.117706  -14.641565 H    1500 MOH     0.4215 ****
9308 HC1    -8.587161   -6.401864   -6.081330 H    1501 MOH     0.0372 ****
9309 C1     -7.979212   -5.531070   -6.329525 C    1501 MOH     0.1166 ****
9310 HC2    -6.929589   -5.800514   -6.444076 H    1501 MOH     0.0372 ****
9311 HC3    -8.035792   -4.808879   -5.514231 H    1501 MOH     0.0372 ****
9312 O1     -8.374119   -4.968912   -7.539385 O    1501 MOH    -0.6497 ****
9313 HO1    -8.092372   -5.567404   -8.235178 H    1501 MOH     0.4215 ****
9314 HC1    -3.006494   -0.151991  -16.769249 H    1502 MOH     0.0372 ****
9315 C1     -4.021475   -0.535336  -16.873194 C    1502 MOH     0.1166 ****
9316 HC2    -4.742586    0.281977  -16.851981 H    1502 MOH     0.0372 ****
9317 HC3    -4.256457   -1.230175  -16.067092 H    1502 MOH     0.0372 ****
9318 O1     -4.149070   -1.247321  -18.055477 O    1502 MOH    -0.6497 ****
9319 HO1    -3.428537   -1.880514  -18.087297 H    1502 MOH     0.4215 ****
9320 HC1    -9.527665  -14.145926  -15.879709 H    1503 MOH     0.0372 ****
9321 C1     -8.670877  -14.403939  -16.503377 C    1503 MOH     0.1166 ****
9322 HC2    -8.484970  -13.610712  -17.226748 H    1503 MOH     0.0372 ****
9323 HC3    -8.916828  -15.307800  -17.060577 H    1503 MOH     0.0372 ****
9324 O1     -7.507516  -14.594591  -15.702225 O    1503 MOH    -0.6497 ****
9325 HO1    -6.811232  -14.942418  -16.263668 H    1503 MOH     0.4215 ****
9326 HC1    -3.472993  -14.485997  -16.696417 H    1504 MOH     0.0372 ****
9327 C1     -3.971246  -15.261668  -17.276245 C    1504 MOH     0.1166 ****
9328 HC2    -3.244362  -16.007130  -17.598686 H    1504 MOH     0.0372 ****
9329 HC3    -4.433703  -14.787692  -18.142451 H    1504 MOH     0.0372 ****
9330 O1     -4.946391  -15.892412  -16.479336 O    1504 MOH    -0.6497 ****
9331 HO1    -4.474695  -16.261468  -15.729802 H    1504 MOH     0.4215 ****
9332 HC1    -4.148492   -2.787234  -20.989970 H    1505 MOH     0.0372 ****
9333 C1     -3.555554   -3.125672  -21.839205 C    1505 MOH     0.1166 ****
9334 HC2    -3.188359   -4.121389  -21.591011 H    1505 MOH     0.0372 ****
9335 HC3    -2.708581   -2.455736  -21.991233 H    1505 MOH     0.0372 ****
9336 O1     -4.359803   -3.176703  -23.009467 O    1505 MOH    -0.6497 ****
9337 HO1    -3.952771   -3.827042  -23.587173 H    1505 MOH     0.4215 ****
9338 HC1    -8.392017   -2.466350  -15.327459 H    1506 MOH     0.0372 ****
9339 C1     -8.210729   -3.504526  -15.048152 C    1506 MOH     0.1166 ****
9340 HC2    -8.870063   -4.141801  -15.637172 H    1506 MOH     0.0372 ****
9341 HC3    -8.435318   -3.659252  -13.992441 H    1506 MOH     0.0372 ****
9342 O1     -6.880514   -3.900118  -15.289275 O    1506 MOH    -0.6497 ****
9343 HO1    -6.700958   -3.791933  -16.226191 H    1506 MOH     0.4215 ****
9344 HC1   -12.670760    3.218099  -13.998098 H    1507 MOH     0.0372 ****
9345 C1    -13.578354    3.154412  -13.398472 C    1507 MOH     0.1166 ****
9346 HC2   -14.189191    2.307705  -13.711013 H    1507 MOH     0.0372 ****
9347 HC3   -14.127415    4.086443  -13.530701 H    1507 MOH     0.0372 ****
9348 O1    -13.206541    2.971109  -12.074061 O    1507 MOH    -0.6497 ****
9349 HO1   -12.679420    2.168492  -12.075475 H    1507 MOH     0.4215 ****
9350 HC1    -0.881267  -12.194907   -9.826168 H    1508 MOH     0.0372 ****
9351 C1     -0.058543  -12.885663  -10.011430 C    1508 MOH     0.1166 ****
9352 HC2     0.216853  -12.764414  -11.058655 H    1508 MOH     0.0372 ****
9353 HC3    -0.366848  -13.925472   -9.904657 H    1508 MOH     0.0372 ****
9354 O1      1.031494  -12.574986   -9.126839 O    1508 MOH    -0.6497 ****
9355 HO1     1.642331  -13.315549   -9.114111 H    1508 MOH     0.4215 ****
9356 HC1    -5.134029  -10.853403  -19.021385 H    1509 MOH     0.0372 ****
9357 C1     -4.206805  -11.030175  -18.477619 C    1509 MOH     0.1166 ****
9358 HC2    -4.272623  -11.954857  -17.904156 H    1509 MOH     0.0372 ****
9359 HC3    -3.983370  -10.193674  -17.815060 H    1509 MOH     0.0372 ****
9360 O1     -3.203370  -11.132237  -19.408172 O    1509 MOH    -0.6497 ****
9361 HO1    -2.393348  -10.791350  -19.021384 H    1509 MOH     0.4215 ****
9362 HC1    -7.230965  -10.709292  -24.294280 H    1510 MOH     0.0372 ****
9363 C1     -6.950951  -11.617644  -23.760414 C    1510 MOH     0.1166 ****
9364 HC2    -6.142660  -12.113258  -24.297815 H    1510 MOH     0.0372 ****
9365 HC3    -7.781758  -12.323506  -23.737080 H    1510 MOH     0.0372 ****
9366 O1     -6.513319  -11.356365  -22.440953 O    1510 MOH    -0.6497 ****
9367 HO1    -6.860884  -12.061002  -21.889410 H    1510 MOH     0.4215 ****
9368 HC1    -3.540543   -9.007713   -2.407911 H    1511 MOH     0.0372 ****
9369 C1     -4.431972   -8.381052   -2.439731 C    1511 MOH     0.1166 ****
9370 HC2    -5.320514   -9.011795   -2.480036 H    1511 MOH     0.0372 ****
9371 HC3    -4.422734   -7.762964   -3.337756 H    1511 MOH     0.0372 ****
9372 O1     -4.421579   -7.533528   -1.318259 O    1511 MOH    -0.6497 ****
9373 HO1    -3.665828   -6.953407   -1.434932 H    1511 MOH     0.4215 ****
9374 HC1     3.712709   -8.410854  -14.868546 H    1512 MOH     0.0372 ****
9375 C1      2.702923   -8.731737  -15.124519 C    1512 MOH     0.1166 ****
9376 HC2     2.005484   -8.301035  -14.405391 H    1512 MOH     0.0372 ****
9377 HC3     2.621517   -9.818086  -15.089871 H    1512 MOH     0.0372 ****
9378 O1      2.347853   -8.272458  -16.396604 O    1512 MOH    -0.6497 ****
9379 HO1     2.946565   -8.679889  -17.025929 H    1512 MOH     0.4215 ****
9380 HC1    -2.796916  -21.196782  -12.453777 H    1513 MOH     0.0372 ****
9381 C1     -2.215524  -20.439481  -11.926982 C    1513 MOH     0.1166 ****
9382 HC2    -1.161860  -20.683614  -12.064161 H    1513 MOH     0.0372 ****
9383 HC3    -2.445309  -20.428867  -10.862079 H    1513 MOH     0.0372 ****
9384 O1     -2.343696  -19.179219  -12.479233 O    1513 MOH    -0.6497 ****
9385 HO1    -1.545220  -18.702793  -12.238109 H    1513 MOH     0.4215 ****
9386 HC1    -0.484050   -1.302435  -13.594340 H    1514 MOH     0.0372 ****
9387 C1     -0.976530   -0.866017  -14.463374 C    1514 MOH     0.1166 ****
9388 HC2    -1.918766   -0.378569  -14.213058 H    1514 MOH     0.0372 ****
9389 HC3    -1.228832   -1.700477  -15.118155 H    1514 MOH     0.0372 ****
9390 O1     -0.138795    0.059073  -15.163410 O    1514 MOH    -0.6497 ****
9391 HO1    -0.679772    0.758811  -15.535348 H    1514 MOH     0.4215 ****
9392 HC1    -2.576368  -21.519298  -17.116439 H    1515 MOH     0.0372 ****
9393 C1     -2.609277  -20.434174  -17.215434 C    1515 MOH     0.1166 ****
9394 HC2    -2.164140  -19.965097  -16.337914 H    1515 MOH     0.0372 ****
9395 HC3    -3.646775  -20.108392  -17.290387 H    1515 MOH     0.0372 ****
9396 O1     -1.923385  -20.056953  -18.380746 O    1515 MOH    -0.6497 ****
9397 HO1    -1.821771  -19.103693  -18.340441 H    1515 MOH     0.4215 ****
9398 HC1     5.856988  -12.702360  -15.933449 H    1516 MOH     0.0372 ****
9399 C1      4.951125  -12.377803  -16.444687 C    1516 MOH     0.1166 ****
9400 HC2     4.065470  -12.770537  -15.945470 H    1516 MOH     0.0372 ****
9401 HC3     4.958631  -12.726038  -17.477770 H    1516 MOH     0.0372 ****
9402 O1      4.858172  -10.985676  -16.430545 O    1516 MOH    -0.6497 ****
9403 HO1     5.128372  -10.700310  -15.554440 H    1516 MOH     0.4215 ****
9404 HC1    -1.608729   -8.138552  -13.948600 H    1517 MOH     0.0372 ****
9405 C1     -0.945353   -8.960356  -13.679193 C    1517 MOH     0.1166 ****
9406 HC2     0.070783   -8.574153  -13.601411 H    1517 MOH     0.0372 ****
9407 HC3    -0.959210   -9.742968  -14.437918 H    1517 MOH     0.0372 ****
9408 O1     -1.323518   -9.387384  -12.392258 O    1517 MOH    -0.6497 ****
9409 HO1    -1.269824   -8.618244  -11.820916 H    1517 MOH     0.4215 ****
9410 HC1    -7.122424   -9.175503  -18.826223 H    1518 MOH     0.0372 ****
9411 C1     -7.752890   -9.489038  -17.994666 C    1518 MOH     0.1166 ****
9412 HC2    -8.729189   -9.801756  -18.365189 H    1518 MOH     0.0372 ****
9413 HC3    -7.923209   -8.661927  -17.304529 H    1518 MOH     0.0372 ****
9414 O1     -7.150714  -10.543135  -17.298872 O    1518 MOH    -0.6497 ****
9415 HO1    -7.801388  -10.897494  -16.689346 H    1518 MOH     0.4215 ****
9416 HC1    -4.460262   -4.443089  -15.682426 H    1519 MOH     0.0372 ****
9417 C1     -3.803814   -4.167521  -14.857233 C    1519 MOH     0.1166 ****
9418 HC2    -4.350565   -4.203447  -13.913952 H    1519 MOH     0.0372 ****
9419 HC3    -3.457404   -3.144859  -15.007846 H    1519 MOH     0.0372 ****
9420 O1     -2.684910   -5.039539  -14.792179 O    1519 MOH    -0.6497 ****
9421 HO1    -2.079846   -4.712941  -14.121842 H    1519 MOH     0.4215 ****
9422 HC1    -0.683814    0.271771   -7.914858 H    1520 MOH     0.0372 ****
9423 C1     -0.995583   -0.147092   -6.957436 C    1520 MOH     0.1166 ****
9424 HC2    -1.522704    0.599186   -6.364880 H    1520 MOH     0.0372 ****
9425 HC3    -0.102999   -0.480631   -6.429227 H    1520 MOH     0.0372 ****
9426 O1     -1.810224   -1.261201   -7.184417 O    1520 MOH    -0.6497 ****
9427 HO1    -2.496116   -1.019927   -7.810207 H    1520 MOH     0.4215 ****
9428 HC1    -8.004038    5.665955  -15.634343 H    1521 MOH     0.0372 ****
9429 C1     -8.911632    6.045626  -16.103862 C    1521 MOH     0.1166 ****
9430 HC2    -8.781151    6.025622  -17.186443 H    1521 MOH     0.0372 ****
9431 HC3    -9.054815    7.076453  -15.782129 H    1521 MOH     0.0372 ****
9432 O1    -10.051899    5.252400  -15.729803 O    1521 MOH    -0.6497 ****
9433 HO1   -10.824971    5.757403  -15.992139 H    1521 MOH     0.4215 ****
9434 HC1   -15.122189  -14.510900  -15.629393 H    1522 MOH     0.0372 ****
9435 C1    -14.478443  -13.726655  -16.026080 C    1522 MOH     0.1166 ****
9436 HC2   -14.444380  -12.925263  -15.288568 H    1522 MOH     0.0372 ****
9437 HC3   -14.877393  -13.286563  -16.941076 H    1522 MOH     0.0372 ****
9438 O1    -13.166704  -14.191241  -16.256597 O    1522 MOH    -0.6497 ****
9439 HO1   -12.724453  -13.404139  -16.581866 H    1522 MOH     0.4215 ****
9440 HC1    -5.846480   -2.803972   -9.122597 H    1523 MOH     0.0372 ****
9441 C1     -5.264511   -2.561472  -10.012137 C    1523 MOH     0.1166 ****
9442 HC2    -5.300884   -3.383276  -10.727022 H    1523 MOH     0.0372 ****
9443 HC3    -4.237404   -2.418177   -9.674847 H    1523 MOH     0.0372 ****
9444 O1     -5.730432   -1.317132  -10.543881 O    1523 MOH    -0.6497 ****
9445 HO1    -5.314740   -0.639848  -10.005773 H    1523 MOH     0.4215 ****
9446 HC1   -10.416784  -13.436390   -6.691564 H    1524 MOH     0.0372 ****
9447 C1    -10.809960  -13.001606   -5.773032 C    1524 MOH     0.1166 ****
9448 HC2   -10.994135  -11.936894   -5.914453 H    1524 MOH     0.0372 ****
9449 HC3   -10.110789  -13.145717   -4.949253 H    1524 MOH     0.0372 ****
9450 O1    -11.974475  -13.662560   -5.444227 O    1524 MOH    -0.6497 ****
9451 HO1   -12.398828  -13.213078   -4.709543 H    1524 MOH     0.4215 ****
9452 HC1    -8.629885   -7.475149  -20.787030 H    1525 MOH     0.0372 ****
9453 C1     -8.763253   -8.497811  -21.139876 C    1525 MOH     0.1166 ****
9454 HC2    -9.762069   -8.575378  -21.568383 H    1525 MOH     0.0372 ****
9455 HC3    -8.689930   -9.214695  -20.322461 H    1525 MOH     0.0372 ****
9456 O1     -7.842957   -8.775011  -22.151746 O    1525 MOH    -0.6497 ****
9457 HO1    -7.726909   -9.722964  -22.243670 H    1525 MOH     0.4215 ****
9458 HC1    -6.442882  -16.749733  -21.829306 H    1526 MOH     0.0372 ****
9459 C1     -7.179581  -16.403947  -21.104521 C    1526 MOH     0.1166 ****
9460 HC2    -7.450359  -17.211871  -20.423577 H    1526 MOH     0.0372 ****
9461 HC3    -8.088331  -16.104293  -21.624952 H    1526 MOH     0.0372 ****
9462 O1     -6.739640  -15.322497  -20.310440 O    1526 MOH    -0.6497 ****
9463 HO1    -5.792209  -15.391083  -20.174676 H    1526 MOH     0.4215 ****
9464 HC1    -5.494296   -0.194449  -21.477166 H    1527 MOH     0.0372 ****
9465 C1     -6.341846   -0.859077  -21.307461 C    1527 MOH     0.1166 ****
9466 HC2    -7.207294   -0.215269  -21.151190 H    1527 MOH     0.0372 ****
9467 HC3    -6.109174   -1.460835  -20.429234 H    1527 MOH     0.0372 ****
9468 O1     -6.475214   -1.560856  -22.522977 O    1527 MOH    -0.6497 ****
9469 HO1    -5.629396   -1.966655  -22.728038 H    1527 MOH     0.4215 ****
9470 HC1    -7.605666  -19.000406  -16.067092 H    1528 MOH     0.0372 ****
9471 C1     -6.570477  -18.696261  -16.223363 C    1528 MOH     0.1166 ****
9472 HC2    -5.981580  -19.598898  -16.390947 H    1528 MOH     0.0372 ****
9473 HC3    -6.197509  -18.139411  -15.364935 H    1528 MOH     0.0372 ****
9474 O1     -6.572786  -17.964680  -17.399989 O    1528 MOH    -0.6497 ****
9475 HO1    -5.935392  -17.255553  -17.290387 H    1528 MOH     0.4215 ****
9476 HC1     5.456884  -13.808304  -11.496354 H    1529 MOH     0.0372 ****
9477 C1      5.840822  -13.211445  -12.323669 C    1529 MOH     0.1166 ****
9478 HC2     6.528446  -13.828717  -12.902082 H    1529 MOH     0.0372 ****
9479 HC3     6.341962  -12.349633  -11.881727 H    1529 MOH     0.0372 ****
9480 O1      4.775611  -12.771762  -13.110679 O    1529 MOH    -0.6497 ****
9481 HO1     4.246180  -13.527838  -13.372308 H    1529 MOH     0.4215 ****
9482 HC1   -16.127933   -5.504534  -15.378371 H    1530 MOH     0.0372 ****
9483 C1    -16.294210   -4.434107  -15.259577 C    1530 MOH     0.1166 ****
9484 HC2   -15.940872   -4.113224  -14.279527 H    1530 MOH     0.0372 ****
9485 HC3   -17.361153   -4.221002  -15.331701 H    1530 MOH     0.0372 ****
9486 O1    -15.607163   -3.719673  -16.269325 O    1530 MOH    -0.6497 ****
9487 HO1   -15.697807   -4.249579  -17.064113 H    1530 MOH     0.4215 ****
9488 HC1    -9.464734    0.811475  -18.227304 H    1531 MOH     0.0372 ****
9489 C1     -8.593512    0.156236  -18.246396 C    1531 MOH     0.1166 ****
9490 HC2    -8.594090   -0.415311  -19.174120 H    1531 MOH     0.0372 ****
9491 HC3    -8.621225   -0.552891  -17.418374 H    1531 MOH     0.0372 ****
9492 O1     -7.415140    0.940890  -18.172856 O    1531 MOH    -0.6497 ****
9493 HO1    -7.444585    1.451608  -17.360391 H    1531 MOH     0.4215 ****
9494 HC1   -13.649946   -5.953607  -15.702225 H    1532 MOH     0.0372 ****
9495 C1    -13.382633   -6.958306  -15.373421 C    1532 MOH     0.1166 ****
9496 HC2   -12.438088   -7.247754  -15.833747 H    1532 MOH     0.0372 ****
9497 HC3   -14.145312   -7.671924  -15.683134 H    1532 MOH     0.0372 ****
9498 O1    -13.215201   -6.950550  -13.944358 O    1532 MOH    -0.6497 ****
9499 HO1   -14.043699   -6.762755  -13.497466 H    1532 MOH     0.4215 ****
9500 HC1     4.283708   -4.817044  -18.271851 H    1533 MOH     0.0372 ****
9501 C1      3.836839   -4.403080  -19.175534 C    1533 MOH     0.1166 ****
9502 HC2     2.809156   -4.084238  -19.003707 H    1533 MOH     0.0372 ****
9503 HC3     3.867439   -5.175486  -19.944866 H    1533 MOH     0.0372 ****
9504 O1      4.647439   -3.338777  -19.563735 O    1533 MOH    -0.6497 ****
9505 HO1     4.829304   -2.792541  -18.795817 H    1533 MOH     0.4215 ****
9506 HC1    -2.490342   -7.069350  -23.677683 H    1534 MOH     0.0372 ****
9507 C1     -3.414680   -6.554141  -23.939312 C    1534 MOH     0.1166 ****
9508 HC2    -4.127708   -6.601089  -23.115533 H    1534 MOH     0.0372 ****
9509 HC3    -3.850580   -7.000356  -24.832388 H    1534 MOH     0.0372 ****
9510 O1     -3.176812   -5.204880  -24.218619 O    1534 MOH    -0.6497 ****
9511 HO1    -2.672208   -5.174670  -25.034621 H    1534 MOH     0.4215 ****
9512 HC1   -10.768391    0.123985  -13.625453 H    1535 MOH     0.0372 ****
9513 C1    -11.139050   -0.272832  -12.680758 C    1535 MOH     0.1166 ****
9514 HC2   -10.284571   -0.395715  -12.015371 H    1535 MOH     0.0372 ****
9515 HC3   -11.610745   -1.248546  -12.796724 H    1535 MOH     0.0372 ****
9516 O1    -11.994105    0.662464  -12.118608 O    1535 MOH    -0.6497 ****
9517 HO1   -11.809353    0.664097  -11.176742 H    1535 MOH     0.4215 ****
9518 HC1   -10.884438  -12.930571   -1.473823 H    1536 MOH     0.0372 ****
9519 C1     -9.990123  -13.373112   -1.034002 C    1536 MOH     0.1166 ****
9520 HC2    -9.924305  -13.099994    0.018880 H    1536 MOH     0.0372 ****
9521 HC3    -9.099849  -13.003239   -1.543119 H    1536 MOH     0.0372 ****
9522 O1    -10.041507  -14.785651   -1.149968 O    1536 MOH    -0.6497 ****
9523 HO1    -9.136222  -15.093878   -1.061579 H    1536 MOH     0.4215 ****
9524 HC1   -11.480264   -4.550866   -7.887281 H    1537 MOH     0.0372 ****
9525 C1    -11.546659   -4.811329   -6.830864 C    1537 MOH     0.1166 ****
9526 HC2   -11.438694   -5.889512   -6.707120 H    1537 MOH     0.0372 ****
9527 HC3   -12.530464   -4.496569   -6.482260 H    1537 MOH     0.0372 ****
9528 O1    -10.562854   -4.092403   -6.107493 O    1537 MOH    -0.6497 ****
9529 HO1    -9.740130   -4.201406   -6.590447 H    1537 MOH     0.4215 ****
9530 HC1    -7.153601   -9.187750   -3.671511 H    1538 MOH     0.0372 ****
9531 C1     -7.564097  -10.144276   -3.348363 C    1538 MOH     0.1166 ****
9532 HC2    -6.785251  -10.906884   -3.327150 H    1538 MOH     0.0372 ****
9533 HC3    -8.349293  -10.423110   -4.050520 H    1538 MOH     0.0372 ****
9534 O1     -8.159922   -9.999756   -2.092541 O    1538 MOH    -0.6497 ****
9535 HO1    -7.539271   -9.550683   -1.514128 H    1538 MOH     0.4215 ****
9536 HC1   -10.770700    1.537749  -16.700660 H    1539 MOH     0.0372 ****
9537 C1    -10.204319    1.842710  -15.820312 C    1539 MOH     0.1166 ****
9538 HC2    -9.818649    0.949055  -15.328873 H    1539 MOH     0.0372 ****
9539 HC3   -10.858457    2.366493  -15.123812 H    1539 MOH     0.0372 ****
9540 O1     -9.109663    2.657166  -16.225484 O    1539 MOH    -0.6497 ****
9541 HO1    -9.460692    3.532450  -16.402261 H    1539 MOH     0.4215 ****
9542 HC1   -18.854181   -7.867067  -17.303822 H    1540 MOH     0.0372 ****
9543 C1    -18.295306   -7.234691  -16.614393 C    1540 MOH     0.1166 ****
9544 HC2   -18.250273   -6.234074  -17.045021 H    1540 MOH     0.0372 ****
9545 HC3   -17.282056   -7.629058  -16.533783 H    1540 MOH     0.0372 ****
9546 O1    -18.960414   -7.222443  -15.326045 O    1540 MOH    -0.6497 ****
9547 HO1   -18.493337   -7.840531  -14.760359 H    1540 MOH     0.4215 ****
9548 HC1   -10.379257  -14.080198  -19.404636 H    1541 MOH     0.0372 ****
9549 C1    -11.261448  -13.496811  -19.143714 C    1541 MOH     0.1166 ****
9550 HC2   -10.957184  -12.498236  -18.832587 H    1541 MOH     0.0372 ****
9551 HC3   -11.796651  -13.986709  -18.330541 H    1541 MOH     0.0372 ****
9552 O1    -12.082440  -13.441698  -20.311147 O    1541 MOH    -0.6497 ****
9553 HO1   -12.173084  -14.330454  -20.663994 H    1541 MOH     0.4215 ****
9554 HC1    -2.842526  -23.072683  -13.953550 H    1542 MOH     0.0372 ****
9555 C1     -2.004791  -22.844472  -14.613281 C    1542 MOH     0.1166 ****
9556 HC2    -1.647411  -21.843039  -14.377814 H    1542 MOH     0.0372 ****
9557 HC3    -2.355243  -22.889379  -15.644242 H    1542 MOH     0.0372 ****
9558 O1     -0.923991  -23.786301  -14.408927 O    1542 MOH    -0.6497 ****
9559 HO1    -0.090875  -23.398057  -14.686820 H    1542 MOH     0.4215 ****
9560 HC1   -13.052966  -12.435774   -7.638380 H    1543 MOH     0.0372 ****
9561 C1    -12.569724  -12.586417   -8.603580 C    1543 MOH     0.1166 ****
9562 HC2   -12.114194  -13.576011   -8.623379 H    1543 MOH     0.0372 ****
9563 HC3   -11.809353  -11.817278   -8.742173 H    1543 MOH     0.0372 ****
9564 O1    -13.600871  -12.537019   -9.589994 O    1543 MOH    -0.6497 ****
9565 HO1   -14.113558  -11.736036   -9.459887 H    1543 MOH     0.4215 ****
9566 HC1   -17.353070  -11.008129  -13.971935 H    1544 MOH     0.0372 ****
9567 C1    -16.765328  -10.092429  -13.910417 C    1544 MOH     0.1166 ****
9568 HC2   -16.299406   -9.881772  -14.873496 H    1544 MOH     0.0372 ****
9569 HC3   -15.976667  -10.241031  -13.173612 H    1544 MOH     0.0372 ****
9570 O1    -17.547060   -8.967705  -13.534943 O    1544 MOH    -0.6497 ****
9571 HO1   -17.947164   -9.131820  -12.677930 H    1544 MOH     0.4215 ****
9572 HC1    -3.535924   -0.334886  -11.492819 H    1545 MOH     0.0372 ****
9573 C1     -2.590224    0.008042  -11.072797 C    1545 MOH     0.1166 ****
9574 HC2    -2.703962    0.982531  -10.596914 H    1545 MOH     0.0372 ****
9575 HC3    -1.860453    0.121535  -11.874656 H    1545 MOH     0.0372 ****
9576 O1     -2.148551   -0.914190  -10.100525 O    1545 MOH    -0.6497 ****
9577 HO1    -1.317167   -1.302435  -10.382661 H    1545 MOH     0.4215 ****
9578 HC1    -3.617908   -8.400648  -16.422060 H    1546 MOH     0.0372 ****
9579 C1     -2.836175   -7.727446  -16.773492 C    1546 MOH     0.1166 ****
9580 HC2    -2.276723   -8.162231  -17.601514 H    1546 MOH     0.0372 ****
9581 HC3    -2.150861   -7.522506  -15.951834 H    1546 MOH     0.0372 ****
9582 O1     -3.410061   -6.528013  -17.218969 O    1546 MOH    -0.6497 ****
9583 HO1    -3.214917   -5.884613  -16.533076 H    1546 MOH     0.4215 ****
9584 HC1     1.281949   14.340252  -16.150531 H    1547 MOH     0.0372 ****
9585 C1      0.245605   14.479056  -15.843647 C    1547 MOH     0.1166 ****
9586 HC2    -0.317889   14.843214  -16.702074 H    1547 MOH     0.0372 ****
9587 HC3     0.175746   15.229008  -15.055223 H    1547 MOH     0.0372 ****
9588 O1     -0.279784   13.236348  -15.426454 O    1547 MOH    -0.6497 ****
9589 HO1    -1.042464   13.388625  -14.864304 H    1547 MOH     0.4215 ****
9590 HC1    -4.219622    3.799281  -12.059211 H    1548 MOH     0.0372 ****
9591 C1     -5.020407    3.405321  -11.433422 C    1548 MOH     0.1166 ****
9592 HC2    -5.586210    2.674965  -12.012542 H    1548 MOH     0.0372 ****
9593 HC3    -5.693020    4.182218  -11.072090 H    1548 MOH     0.0372 ****
9594 O1     -4.523308    2.664351  -10.389025 O    1548 MOH    -0.6497 ****
9595 HO1    -3.978867    3.260393   -9.870009 H    1548 MOH     0.4215 ****
9596 HC1     7.889722    5.038315   -7.552820 H    1549 MOH     0.0372 ****
9597 C1      7.950922    5.818069   -6.794801 C    1549 MOH     0.1166 ****
9598 HC2     8.311188    5.372262   -5.867077 H    1549 MOH     0.0372 ****
9599 HC3     6.957879    6.243464   -6.649137 H    1549 MOH     0.0372 ****
9600 O1      8.822143    6.840731   -7.222601 O    1549 MOH    -0.6497 ****
9601 HO1     9.708953    6.480656   -7.289069 H    1549 MOH     0.4215 ****
9602 HC1     7.510981   -1.066222  -20.965928 H    1550 MOH     0.0372 ****
9603 C1      7.323919   -2.052142  -20.540957 C    1550 MOH     0.1166 ****
9604 HC2     6.931898   -1.957428  -19.528380 H    1550 MOH     0.0372 ****
9605 HC3     8.281166   -2.568576  -20.472368 H    1550 MOH     0.0372 ****
9606 O1      6.482720   -2.855983  -21.390192 O    1550 MOH    -0.6497 ****
9607 HO1     5.766806   -3.202177  -20.852791 H    1550 MOH     0.4215 ****
9608 HC1    18.217942    8.176111  -17.948703 H    1551 MOH     0.0372 ****
9609 C1     18.023374    8.917490  -17.173714 C    1551 MOH     0.1166 ****
9610 HC2    16.959318    8.959539  -16.941076 H    1551 MOH     0.0372 ****
9611 HC3    18.324751    9.905859  -17.520904 H    1551 MOH     0.0372 ****
9612 O1     18.693101    8.587217  -15.962440 O    1551 MOH    -0.6497 ****
9613 HO1    18.475440    7.692745  -15.690204 H    1551 MOH     0.4215 ****
9614 HC1     2.331571   12.888929  -11.481505 H    1552 MOH     0.0372 ****
9615 C1      2.935480   13.440473  -10.760963 C    1552 MOH     0.1166 ****
9616 HC2     3.747234   12.805238  -10.407410 H    1552 MOH     0.0372 ****
9617 HC3     2.287115   13.726246   -9.932234 H    1552 MOH     0.0372 ****
9618 O1      3.440084   14.564380  -11.416451 O    1552 MOH    -0.6497 ****
9619 HO1     4.252993   14.826067  -10.977338 H    1552 MOH     0.4215 ****
9620 HC1     9.035763    6.481472  -23.942848 H    1553 MOH     0.0372 ****
9621 C1      8.243638    5.949116  -23.416760 C    1553 MOH     0.1166 ****
9622 HC2     8.270774    6.206721  -22.358221 H    1553 MOH     0.0372 ****
9623 HC3     8.409338    4.881547  -23.558889 H    1553 MOH     0.0372 ****
9624 O1      7.015037    6.364713  -23.972546 O    1553 MOH    -0.6497 ****
9625 HO1     6.320485    6.005863  -23.414639 H    1553 MOH     0.4215 ****
9626 HC1    13.100886   12.540285  -16.419939 H    1554 MOH     0.0372 ****
9627 C1     13.149383   11.452712  -16.470850 C    1554 MOH     0.1166 ****
9628 HC2    12.771219   11.097944  -17.428980 H    1554 MOH     0.0372 ****
9629 HC3    12.542588   11.006088  -15.683133 H    1554 MOH     0.0372 ****
9630 O1     14.485949   11.018335  -16.397311 O    1554 MOH    -0.6497 ****
9631 HO1    14.453618   10.058952  -16.376098 H    1554 MOH     0.4215 ****
9632 HC1     4.190639   11.515582  -21.993354 H    1555 MOH     0.0372 ****
9633 C1      4.236250   11.060793  -22.983304 C    1555 MOH     0.1166 ****
9634 HC2     5.153660   10.481897  -23.092198 H    1555 MOH     0.0372 ****
9635 HC3     4.225858   11.838506  -23.746272 H    1555 MOH     0.0372 ****
9636 O1      3.132934   10.224293  -23.200386 O    1555 MOH    -0.6497 ****
9637 HO1     3.392164    9.336761  -22.942999 H    1555 MOH     0.4215 ****
9638 HC1    12.297792    6.958714  -23.498078 H    1556 MOH     0.0372 ****
9639 C1     12.496400    7.919323  -23.023609 C    1556 MOH     0.1166 ****
9640 HC2    13.561034    8.136511  -23.107047 H    1556 MOH     0.0372 ****
9641 HC3    12.267192    7.884213  -21.958706 H    1556 MOH     0.0372 ****
9642 O1     11.703121    8.915040  -23.674854 O    1556 MOH    -0.6497 ****
9643 HO1    11.750464    9.691120  -23.111290 H    1556 MOH     0.4215 ****
9644 HC1    -2.127305    5.671916  -15.052394 H    1557 MOH     0.0372 ****
9645 C1     -1.212782    5.978102  -15.560097 C    1557 MOH     0.1166 ****
9646 HC2    -0.617534    6.632524  -14.922994 H    1557 MOH     0.0372 ****
9647 HC3    -1.488178    6.524338  -16.462365 H    1557 MOH     0.0372 ****
9648 O1     -0.510724    4.838681  -15.958198 O    1557 MOH    -0.6497 ****
9649 HO1     0.424006    5.037498  -15.868395 H    1557 MOH     0.4215 ****
9650 HC1    -5.181488    5.334295  -19.908097 H    1558 MOH     0.0372 ****
9651 C1     -5.138764    5.575977  -18.846022 C    1558 MOH     0.1166 ****
9652 HC2    -4.101843    5.513924  -18.515096 H    1558 MOH     0.0372 ****
9653 HC3    -5.736321    4.874199  -18.264073 H    1558 MOH     0.0372 ****
9654 O1     -5.572354    6.869716  -18.576614 O    1558 MOH    -0.6497 ****
9655 HO1    -6.341962    7.061185  -19.117551 H    1558 MOH     0.4215 ****
9656 HC1    -7.784760    9.271849  -12.192854 H    1559 MOH     0.0372 ****
9657 C1     -8.219505    8.386359  -11.729700 C    1559 MOH     0.1166 ****
9658 HC2    -8.631733    7.711524  -12.479940 H    1559 MOH     0.0372 ****
9659 HC3    -9.041652    8.672541  -11.072797 H    1559 MOH     0.0372 ****
9660 O1     -7.314220    7.683763  -10.934204 O    1559 MOH    -0.6497 ****
9661 HO1    -7.840763    6.966063  -10.573580 H    1559 MOH     0.4215 ****
9662 HC1    17.896935   10.205921  -14.167096 H    1560 MOH     0.0372 ****
9663 C1     17.979496   11.145709  -13.621210 C    1560 MOH     0.1166 ****
9664 HC2    17.152730   11.801356  -13.894153 H    1560 MOH     0.0372 ****
9665 HC3    18.936743   11.607846  -13.865869 H    1560 MOH     0.0372 ****
9666 O1     17.938504   10.787675  -12.279828 O    1560 MOH    -0.6497 ****
9667 HO1    18.162516   11.530687  -11.715557 H    1560 MOH     0.4215 ****
9668 HC1     5.804333   14.830150  -14.423776 H    1561 MOH     0.0372 ****
9669 C1      5.138648   15.689104  -14.338923 C    1561 MOH     0.1166 ****
9670 HC2     4.096531   15.369038  -14.345995 H    1561 MOH     0.0372 ****
9671 HC3     5.273748   16.313724  -15.221393 H    1561 MOH     0.0372 ****
9672 O1      5.364392   16.486005  -13.135428 O    1561 MOH    -0.6497 ****
9673 HO1     5.291646   15.918948  -12.365388 H    1561 MOH     0.4215 ****
9674 HC1    -1.872116    7.443713  -19.521309 H    1562 MOH     0.0372 ****
9675 C1     -2.412516    8.313282  -19.894661 C    1562 MOH     0.1166 ****
9676 HC2    -2.855921    7.983826  -20.834406 H    1562 MOH     0.0372 ****
9677 HC3    -1.689673    9.116307  -20.041033 H    1562 MOH     0.0372 ****
9678 O1     -3.403826    8.651720  -18.901176 O    1562 MOH    -0.6497 ****
9679 HO1    -4.039489    7.937694  -18.818445 H    1562 MOH     0.4215 ****
9680 HC1    -3.428652    0.671691  -23.830418 H    1563 MOH     0.0372 ****
9681 C1     -3.015847    1.679248  -23.867187 C    1563 MOH     0.1166 ****
9682 HC2    -3.101294    2.149958  -22.887844 H    1563 MOH     0.0372 ****
9683 HC3    -3.592620    2.267125  -24.581365 H    1563 MOH     0.0372 ****
9684 O1     -1.676394    1.623726  -24.298522 O    1563 MOH    -0.6497 ****
9685 HO1    -1.642908    0.963180  -24.994316 H    1563 MOH     0.4215 ****
9686 HC1    12.684617   -1.171550  -17.881528 H    1564 MOH     0.0372 ****
9687 C1     12.004498   -1.740240  -17.247254 C    1564 MOH     0.1166 ****
9688 HC2    12.358991   -1.703090  -16.216999 H    1564 MOH     0.0372 ****
9689 HC3    11.949650   -2.776783  -17.578887 H    1564 MOH     0.0372 ****
9690 O1     10.771855   -1.117253  -17.329278 O    1564 MOH    -0.6497 ****
9691 HO1    10.874046   -0.224414  -16.993402 H    1564 MOH     0.4215 ****
9692 HC1     2.744954   19.084097  -11.690102 H    1565 MOH     0.0372 ****
9693 C1      2.290580   19.382118  -12.634796 C    1565 MOH     0.1166 ****
9694 HC2     1.209780   19.247396  -12.586713 H    1565 MOH     0.0372 ****
9695 HC3     2.713200   18.757498  -13.422513 H    1565 MOH     0.0372 ****
9696 O1      2.572327   20.739544  -12.894304 O    1565 MOH    -0.6497 ****
9697 HO1     2.302704   20.933870  -13.795158 H    1565 MOH     0.4215 ****
9698 HC1     3.785917   21.997765   -8.566811 H    1566 MOH     0.0372 ****
9699 C1      3.444125   21.328238   -9.355942 C    1566 MOH     0.1166 ****
9700 HC2     2.945872   20.452137   -8.940163 H    1566 MOH     0.0372 ****
9701 HC3     4.316502   21.010212   -9.926577 H    1566 MOH     0.0372 ****
9702 O1      2.662970   22.058186  -10.278009 O    1566 MOH    -0.6497 ****
9703 HO1     2.690106   21.571146  -11.104617 H    1566 MOH     0.4215 ****
9704 HC1     6.552579    5.291837  -12.897840 H    1567 MOH     0.0372 ****
9705 C1      6.412283    5.137519  -13.966985 C    1567 MOH     0.1166 ****
9706 HC2     6.215984    6.092003  -14.456303 H    1567 MOH     0.0372 ****
9707 HC3     5.578012    4.458602  -14.143055 H    1567 MOH     0.0372 ****
9708 O1      7.587768    4.583118  -14.518529 O    1567 MOH    -0.6497 ****
9709 HO1     8.234401    4.482280  -13.816371 H    1567 MOH     0.4215 ****
9710 HC1     9.315778   13.328204  -11.607370 H    1568 MOH     0.0372 ****
9711 C1      9.798442   12.362289  -11.754448 C    1568 MOH     0.1166 ****
9712 HC2     9.025370   11.608254  -11.902233 H    1568 MOH     0.0372 ****
9713 HC3    10.363091   12.119789  -10.855008 H    1568 MOH     0.0372 ****
9714 O1     10.706614   12.390050  -12.877334 O    1568 MOH    -0.6497 ****
9715 HO1    11.417910   12.994257  -12.648231 H    1568 MOH     0.4215 ****
9716 HC1     4.008774    5.085671  -20.266600 H    1569 MOH     0.0372 ****
9717 C1      3.847693    4.072807  -19.898197 C    1569 MOH     0.1166 ****
9718 HC2     3.096561    4.117715  -19.110480 H    1569 MOH     0.0372 ****
9719 HC3     4.772608    3.672316  -19.483125 H    1569 MOH     0.0372 ****
9720 O1      3.396205    3.226100  -20.954614 O    1569 MOH    -0.6497 ****
9721 HO1     3.800928    2.367962  -20.804708 H    1569 MOH     0.4215 ****
9722 HC1    11.880367   16.599906   -3.471399 H    1570 MOH     0.0372 ****
9723 C1     11.169072   15.774020   -3.482006 C    1570 MOH     0.1166 ****
9724 HC2    11.531071   15.042847   -4.205376 H    1570 MOH     0.0372 ****
9725 HC3    10.180071   16.146342   -3.752121 H    1570 MOH     0.0372 ****
9726 O1     11.105563   15.200431   -2.197193 O    1570 MOH    -0.6497 ****
9727 HO1    10.829590   15.884247   -1.582717 H    1570 MOH     0.4215 ****
9728 HC1     7.810048   18.129612  -20.479439 H    1571 MOH     0.0372 ****
9729 C1      7.229234   18.510916  -19.639396 C    1571 MOH     0.1166 ****
9730 HC2     7.526569   19.518065  -19.347361 H    1571 MOH     0.0372 ****
9731 HC3     7.437080   17.855678  -18.792989 H    1571 MOH     0.0372 ****
9732 O1      5.849944   18.467234  -19.924360 O    1571 MOH    -0.6497 ****
9733 HO1     5.444644   17.792399  -19.374938 H    1571 MOH     0.4215 ****
9734 HC1     6.742528    9.131820  -14.702376 H    1572 MOH     0.0372 ****
9735 C1      5.679048    9.332678  -14.833898 C    1572 MOH     0.1166 ****
9736 HC2     5.097079    8.411670  -14.807028 H    1572 MOH     0.0372 ****
9737 HC3     5.513926    9.803389  -15.803342 H    1572 MOH     0.0372 ****
9738 O1      5.228715   10.223068  -13.854555 O    1572 MOH    -0.6497 ****
9739 HO1     5.338989   11.117540  -14.184774 H    1572 MOH     0.4215 ****
9740 HC1    10.455467   12.059369  -17.498984 H    1573 MOH     0.0372 ****
9741 C1     10.051322   12.405155  -18.450042 C    1573 MOH     0.1166 ****
9742 HC2     9.118324   11.881781  -18.662174 H    1573 MOH     0.0372 ****
9743 HC3    10.772432   12.260227  -19.254023 H    1573 MOH     0.0372 ****
9744 O1      9.804793   13.771154  -18.295893 O    1573 MOH    -0.6497 ****
9745 HO1    10.629250   14.226759  -18.107803 H    1573 MOH     0.4215 ****
9746 HC1     5.653068   12.731345  -19.962544 H    1574 MOH     0.0372 ****
9747 C1      5.415777   12.444755  -18.937239 C    1574 MOH     0.1166 ****
9748 HC2     6.177879   11.782168  -18.527824 H    1574 MOH     0.0372 ****
9749 HC3     4.462571   11.916073  -18.956331 H    1574 MOH     0.0372 ****
9750 O1      5.314163   13.571112  -18.099317 O    1574 MOH    -0.6497 ****
9751 HO1     6.087812   14.127554  -18.218818 H    1574 MOH     0.4215 ****
9752 HC1     2.750150    2.154449  -11.388167 H    1575 MOH     0.0372 ****
9753 C1      2.838485    3.140368  -10.932083 C    1575 MOH     0.1166 ****
9754 HC2     2.237463    3.172212  -10.024158 H    1575 MOH     0.0372 ****
9755 HC3     2.486301    3.875623  -11.655453 H    1575 MOH     0.0372 ****
9756 O1      4.178515    3.344084  -10.624492 O    1575 MOH    -0.6497 ****
9757 HO1     4.663489    2.877456  -11.308264 H    1575 MOH     0.4215 ****
9758 HC1    12.695009   13.946700  -19.165634 H    1576 MOH     0.0372 ****
9759 C1     13.115320   14.830150  -18.684802 C    1576 MOH     0.1166 ****
9760 HC2    13.368777   15.571937  -19.442113 H    1576 MOH     0.0372 ****
9761 HC3    14.002130   14.547234  -18.118409 H    1576 MOH     0.0372 ****
9762 O1     12.110153   15.326580  -17.861729 O    1576 MOH    -0.6497 ****
9763 HO1    12.466378   15.522947  -16.992695 H    1576 MOH     0.4215 ****
9764 HC1     7.046214   16.254528   -6.589740 H    1577 MOH     0.0372 ****
9765 C1      7.003490   17.128588   -7.239571 C    1577 MOH     0.1166 ****
9766 HC2     7.804275   17.828734   -7.001276 H    1577 MOH     0.0372 ****
9767 HC3     6.064141   17.644614   -7.044410 H    1577 MOH     0.0372 ****
9768 O1      7.004067   16.774228   -8.631158 O    1577 MOH    -0.6497 ****
9769 HO1     7.113186   17.566638   -9.162195 H    1577 MOH     0.4215 ****
9770 HC1     1.359891   11.985067  -17.975574 H    1578 MOH     0.0372 ****
9771 C1      0.777345   11.112233  -17.680003 C    1578 MOH     0.1166 ****
9772 HC2     1.113362   10.197348  -18.167200 H    1578 MOH     0.0372 ****
9773 HC3    -0.242833   11.292270  -18.017293 H    1578 MOH     0.0372 ****
9774 O1      0.770416   10.965263  -16.277103 O    1578 MOH    -0.6497 ****
9775 HO1     0.583932   11.827075  -15.895973 H    1578 MOH     0.4215 ****
9776 HC1     0.529084    8.970562  -13.704649 H    1579 MOH     0.0372 ****
9777 C1      1.560809    8.686830  -13.910417 C    1579 MOH     0.1166 ****
9778 HC2     1.831586    7.860943  -13.253515 H    1579 MOH     0.0372 ****
9779 HC3     2.209173    9.537619  -13.699699 H    1579 MOH     0.0372 ****
9780 O1      1.698796    8.367579  -15.272304 O    1579 MOH    -0.6497 ****
9781 HO1     1.402038    9.160398  -15.724853 H    1579 MOH     0.4215 ****
9782 HC1     6.023149    8.243064  -19.391201 H    1580 MOH     0.0372 ****
9783 C1      6.037583    8.950558  -20.220638 C    1580 MOH     0.1166 ****
9784 HC2     5.046850    9.381668  -20.362059 H    1580 MOH     0.0372 ****
9785 HC3     6.376488    8.457394  -21.131391 H    1580 MOH     0.0372 ****
9786 O1      6.914578   10.002205  -19.913753 O    1580 MOH    -0.6497 ****
9787 HO1     7.110877   10.009146  -18.974008 H    1580 MOH     0.4215 ****
9788 HC1    12.154609    4.408387   -6.061531 H    1581 MOH     0.0372 ****
9789 C1     12.229664    5.450237   -6.371244 C    1581 MOH     0.1166 ****
9790 HC2    13.268318    5.674774   -6.614489 H    1581 MOH     0.0372 ****
9791 HC3    11.867666    6.051587   -5.536151 H    1581 MOH     0.0372 ****
9792 O1     11.341700    5.607821   -7.447461 O    1581 MOH    -0.6497 ****
9793 HO1    11.708894    5.087304   -8.165174 H    1581 MOH     0.4215 ****
9794 HC1     1.879506    0.495736   -5.512817 H    1582 MOH     0.0372 ****
9795 C1      2.871971    0.516557   -5.963244 C    1582 MOH     0.1166 ****
9796 HC2     3.395051    1.427767   -5.673330 H    1582 MOH     0.0372 ****
9797 HC3     2.811927    0.461035   -7.049360 H    1582 MOH     0.0372 ****
9798 O1      3.606938   -0.548155   -5.514938 O    1582 MOH    -0.6497 ****
9799 HO1     3.160069   -1.344239   -5.810509 H    1582 MOH     0.4215 ****
9800 HC1    -2.773937    4.786834  -21.607274 H    1583 MOH     0.0372 ****
9801 C1     -1.985854    4.821126  -22.359636 C    1583 MOH     0.1166 ****
9802 HC2    -2.406165    5.212636  -23.286653 H    1583 MOH     0.0372 ****
9803 HC3    -1.588059    3.823368  -22.546312 H    1583 MOH     0.0372 ****
9804 O1     -0.979532    5.721314  -22.009618 O    1583 MOH    -0.6497 ****
9805 HO1    -0.152189    5.256319  -22.153161 H    1583 MOH     0.4215 ****
9806 HC1     0.429780    4.166296  -24.325393 H    1584 MOH     0.0372 ****
9807 C1      0.859906    3.596382  -23.500906 C    1584 MOH     0.1166 ****
9808 HC2     1.635287    2.952574  -23.915978 H    1584 MOH     0.0372 ****
9809 HC3     0.114547    2.947675  -23.040580 H    1584 MOH     0.0372 ****
9810 O1      1.429173    4.490854  -22.561161 O    1584 MOH    -0.6497 ****
9811 HO1     1.843711    3.951558  -21.884460 H    1584 MOH     0.4215 ****
9812 HC1    10.777051   12.881581  -22.040023 H    1585 MOH     0.0372 ****
9813 C1     11.520678   12.360656  -22.642478 C    1585 MOH     0.1166 ****
9814 HC2    12.436356   12.950166  -22.690562 H    1585 MOH     0.0372 ****
9815 HC3    11.184661   12.239406  -23.672733 H    1585 MOH     0.0372 ****
9816 O1     11.859006   11.131828  -22.058408 O    1585 MOH    -0.6497 ****
9817 HO1    11.155216   10.860343  -21.465146 H    1585 MOH     0.4215 ****
9818 HC1    11.492966    7.204480  -17.380190 H    1586 MOH     0.0372 ****
9819 C1     11.453706    6.134869  -17.585251 C    1586 MOH     0.1166 ****
9820 HC2    10.675438    5.706617  -16.953804 H    1586 MOH     0.0372 ****
9821 HC3    12.422499    5.698452  -17.341299 H    1586 MOH     0.0372 ****
9822 O1     11.165031    5.842972  -18.953502 O    1586 MOH    -0.6497 ****
9823 HO1    11.594579    5.028517  -19.225738 H    1586 MOH     0.4215 ****
9824 HC1    15.654506    5.884613  -19.626668 H    1587 MOH     0.0372 ****
9825 C1     15.132004    6.813786  -19.398979 C    1587 MOH     0.1166 ****
9826 HC2    14.099702    6.600681  -19.120379 H    1587 MOH     0.0372 ****
9827 HC3    15.172419    7.460043  -20.275085 H    1587 MOH     0.0372 ****
9828 O1     15.819628    7.377169  -18.332662 O    1587 MOH    -0.6497 ****
9829 HO1    16.282086    6.661918  -17.890014 H    1587 MOH     0.4215 ****
9830 HC1    10.527636    8.029141  -20.007798 H    1588 MOH     0.0372 ****
9831 C1      9.590596    8.285113  -20.500652 C    1588 MOH     0.1166 ****
9832 HC2     8.752284    7.953207  -19.887590 H    1588 MOH     0.0372 ****
9833 HC3     9.572121    7.786234  -21.469388 H    1588 MOH     0.0372 ****
9834 O1      9.559997    9.668667  -20.717734 O    1588 MOH    -0.6497 ****
9835 HO1     8.643742    9.909941  -20.869762 H    1588 MOH     0.4215 ****
9836 HC1     0.581045    7.326954  -10.765913 H    1589 MOH     0.0372 ****
9837 C1     -0.428740    7.726221  -10.673989 C    1589 MOH     0.1166 ****
9838 HC2    -1.041309    6.984842  -10.160630 H    1589 MOH     0.0372 ****
9839 HC3    -0.829999    7.918098  -11.669595 H    1589 MOH     0.0372 ****
9840 O1     -0.360613    8.915040   -9.911728 O    1589 MOH    -0.6497 ****
9841 HO1    -0.026327    9.608246  -10.485899 H    1589 MOH     0.4215 ****
9842 HC1     7.198057    3.319181  -21.715461 H    1590 MOH     0.0372 ****
9843 C1      7.503475    2.338977  -22.082450 C    1590 MOH     0.1166 ****
9844 HC2     8.452639    2.418585  -22.612073 H    1590 MOH     0.0372 ****
9845 HC3     6.736754    1.946650  -22.749251 H    1590 MOH     0.0372 ****
9846 O1      7.657050    1.418377  -21.008355 O    1590 MOH    -0.6497 ****
9847 HO1     8.506333    0.984409  -21.116542 H    1590 MOH     0.4215 ****
9848 HC1     3.011113   10.000573   -6.081330 H    1591 MOH     0.0372 ****
9849 C1      3.619062   10.871366   -6.329525 C    1591 MOH     0.1166 ****
9850 HC2     4.668685   10.601922   -6.444076 H    1591 MOH     0.0372 ****
9851 HC3     3.562482   11.593557   -5.514231 H    1591 MOH     0.0372 ****
9852 O1      3.224155   11.433524   -7.539385 O    1591 MOH    -0.6497 ****
9853 HO1     3.505902   10.835032   -8.235178 H    1591 MOH     0.4215 ****
9854 HC1     4.483933    6.994640  -26.790367 H    1592 MOH     0.0372 ****
9855 C1      5.407694    7.182843  -27.338375 C    1592 MOH     0.1166 ****
9856 HC2     5.998323    6.267958  -27.300898 H    1592 MOH     0.0372 ****
9857 HC3     5.930196    8.006280  -26.851178 H    1592 MOH     0.0372 ****
9858 O1      5.134607    7.535161  -28.692484 O    1592 MOH    -0.6497 ****
9859 HO1     5.916339    7.957290  -29.055937 H    1592 MOH     0.4215 ****
9860 HC1     8.591780   16.250446  -16.769249 H    1593 MOH     0.0372 ****
9861 C1      7.576799   15.867100  -16.873194 C    1593 MOH     0.1166 ****
9862 HC2     6.855688   16.684413  -16.851981 H    1593 MOH     0.0372 ****
9863 HC3     7.341817   15.172262  -16.067092 H    1593 MOH     0.0372 ****
9864 O1      7.449204   15.155115  -18.055477 O    1593 MOH    -0.6497 ****
9865 HO1     8.169737   14.521922  -18.087297 H    1593 MOH     0.4215 ****
9866 HC1     2.070609    2.256511  -15.879709 H    1594 MOH     0.0372 ****
9867 C1      2.927397    1.998498  -16.503377 C    1594 MOH     0.1166 ****
9868 HC2     3.113304    2.791724  -17.226748 H    1594 MOH     0.0372 ****
9869 HC3     2.681446    1.094636  -17.060577 H    1594 MOH     0.0372 ****
9870 O1      4.090758    1.807846  -15.702225 O    1594 MOH    -0.6497 ****
9871 HO1     4.787042    1.460018  -16.263668 H    1594 MOH     0.4215 ****
9872 HC1     8.125281    1.916440  -16.696417 H    1595 MOH     0.0372 ****
9873 C1      7.627028    1.140768  -17.276245 C    1595 MOH     0.1166 ****
9874 HC2     8.353912    0.395307  -17.598686 H    1595 MOH     0.0372 ****
9875 HC3     7.164571    1.614744  -18.142451 H    1595 MOH     0.0372 ****
9876 O1      6.651884    0.510024  -16.479336 O    1595 MOH    -0.6497 ****
9877 HO1     7.123579    0.140968  -15.729802 H    1595 MOH     0.4215 ****
9878 HC1    11.465830    7.968313   -9.509384 H    1596 MOH     0.0372 ****
9879 C1     10.843446    8.862785   -9.518576 C    1596 MOH     0.1166 ****
9880 HC2    11.287429    9.649887   -8.909050 H    1596 MOH     0.0372 ****
9881 HC3     9.871766    8.584767   -9.109162 H    1596 MOH     0.0372 ****
9882 O1     10.663891    9.315532  -10.840159 O    1596 MOH    -0.6497 ****
9883 HO1    11.521256    9.591099  -11.173206 H    1596 MOH     0.4215 ****
9884 HC1     7.449782   13.615203  -20.989970 H    1597 MOH     0.0372 ****
9885 C1      8.042720   13.276765  -21.839205 C    1597 MOH     0.1166 ****
9886 HC2     8.409915   12.281047  -21.591011 H    1597 MOH     0.0372 ****
9887 HC3     8.889693   13.946700  -21.991233 H    1597 MOH     0.0372 ****
9888 O1      7.238471   13.225734  -23.009467 O    1597 MOH    -0.6497 ****
9889 HO1     7.645503   12.575394  -23.587173 H    1597 MOH     0.4215 ****
9890 HC1     3.206257   13.936086  -15.327459 H    1598 MOH     0.0372 ****
9891 C1      3.387545   12.897911  -15.048152 C    1598 MOH     0.1166 ****
9892 HC2     2.728211   12.260635  -15.637172 H    1598 MOH     0.0372 ****
9893 HC3     3.162956   12.743185  -13.992441 H    1598 MOH     0.0372 ****
9894 O1      4.717760   12.502318  -15.289275 O    1598 MOH    -0.6497 ****
9895 HO1     4.897316   12.610504  -16.226191 H    1598 MOH     0.4215 ****
9896 HC1     7.094711    8.147942  -11.668888 H    1599 MOH     0.0372 ****
9897 C1      7.548508    9.027309  -11.212097 C    1599 MOH     0.1166 ****
9898 HC2     8.385666    9.344109  -11.834351 H    1599 MOH     0.0372 ****
9899 HC3     7.852195    8.778277  -10.195278 H    1599 MOH     0.0372 ****
9900 O1      6.598190   10.025067  -11.247453 O    1599 MOH    -0.6497 ****
9901 HO1     6.270255   10.080589  -12.148307 H    1599 MOH     0.4215 ****
9902 HC1    14.457659   11.467000   -6.292048 H    1600 MOH     0.0372 ****
9903 C1     14.204780   12.331670   -5.678280 C    1600 MOH     0.1166 ****
9904 HC2    15.012493   12.514974   -4.970466 H    1600 MOH     0.0372 ****
9905 HC3    13.286793   12.098969   -5.139464 H    1600 MOH     0.0372 ****
9906 O1     14.012522   13.440064   -6.534586 O    1600 MOH    -0.6497 ****
9907 HO1    13.327207   13.168988   -7.149769 H    1600 MOH     0.4215 ****
9908 HC1     6.464245    5.549033  -19.021385 H    1601 MOH     0.0372 ****
9909 C1      7.391469    5.372262  -18.477619 C    1601 MOH     0.1166 ****
9910 HC2     7.325651    4.447579  -17.904156 H    1601 MOH     0.0372 ****
9911 HC3     7.614904    6.208762  -17.815060 H    1601 MOH     0.0372 ****
9912 O1      8.394904    5.270200  -19.408172 O    1601 MOH    -0.6497 ****
9913 HO1     9.204926    5.611087  -19.021384 H    1601 MOH     0.4215 ****
9914 HC1     4.367309    5.693145  -24.294280 H    1602 MOH     0.0372 ****
9915 C1      4.647323    4.784792  -23.760414 C    1602 MOH     0.1166 ****
9916 HC2     5.455614    4.289179  -24.297815 H    1602 MOH     0.0372 ****
9917 HC3     3.816516    4.078931  -23.737080 H    1602 MOH     0.0372 ****
9918 O1      5.084955    5.046071  -22.440953 O    1602 MOH    -0.6497 ****
9919 HO1     4.737390    4.341435  -21.889410 H    1602 MOH     0.4215 ****
9920 HC1     8.057731    7.394724   -2.407911 H    1603 MOH     0.0372 ****
9921 C1      7.166303    8.021385   -2.439731 C    1603 MOH     0.1166 ****
9922 HC2     6.277760    7.390641   -2.480036 H    1603 MOH     0.0372 ****
9923 HC3     7.175540    8.639473   -3.337756 H    1603 MOH     0.0372 ****
9924 O1      7.176695    8.868908   -1.318259 O    1603 MOH    -0.6497 ****
9925 HO1     7.932446    9.449029   -1.434932 H    1603 MOH     0.4215 ****
9926 HC1     9.714727    8.656619   -3.821417 H    1604 MOH     0.0372 ****
9927 C1      9.939316    9.722555   -3.771213 C    1604 MOH     0.1166 ****
9928 HC2     9.580204   10.270425   -4.642368 H    1604 MOH     0.0372 ****
9929 HC3    11.025312    9.769096   -3.843337 H    1604 MOH     0.0372 ****
9930 O1      9.578472   10.320639   -2.504784 O    1604 MOH    -0.6497 ****
9931 HO1     9.506303   11.269408   -2.630649 H    1604 MOH     0.4215 ****
9932 HC1     3.956812    6.562714   -7.371800 H    1605 MOH     0.0372 ****
9933 C1      4.302068    5.719681   -7.969306 C    1605 MOH     0.1166 ****
9934 HC2     5.042231    5.187733   -7.370386 H    1605 MOH     0.0372 ****
9935 HC3     4.743741    6.105476   -8.887837 H    1605 MOH     0.0372 ****
9936 O1      3.249558    4.801939   -8.303060 O    1605 MOH    -0.6497 ****
9937 HO1     3.528419    4.288771   -9.064614 H    1605 MOH     0.4215 ****
9938 HC1    11.114224   15.100002  -13.594340 H    1606 MOH     0.0372 ****
9939 C1     10.621744   15.536419  -14.463374 C    1606 MOH     0.1166 ****
9940 HC2     9.679508   16.023868  -14.213058 H    1606 MOH     0.0372 ****
9941 HC3    10.369442   14.701960  -15.118155 H    1606 MOH     0.0372 ****
9942 O1     11.459479   16.461510  -15.163410 O    1606 MOH    -0.6497 ****
9943 HO1    10.918502   17.161248  -15.535348 H    1606 MOH     0.4215 ****
9944 HC1    13.769458   14.463135   -9.845260 H    1607 MOH     0.0372 ****
9945 C1     13.429976   13.717265  -10.564387 C    1607 MOH     0.1166 ****
9946 HC2    12.923639   12.879948  -10.082848 H    1607 MOH     0.0372 ****
9947 HC3    14.316786   13.320448  -11.059362 H    1607 MOH     0.0372 ****
9948 O1     12.588776   14.337802  -11.518982 O    1607 MOH    -0.6497 ****
9949 HO1    13.118207   15.022843  -11.934760 H    1607 MOH     0.4215 ****
9950 HC1     4.475850    7.226934  -18.826223 H    1608 MOH     0.0372 ****
9951 C1      3.845384    6.913399  -17.994666 C    1608 MOH     0.1166 ****
9952 HC2     2.869085    6.600681  -18.365189 H    1608 MOH     0.0372 ****
9953 HC3     3.675066    7.740510  -17.304529 H    1608 MOH     0.0372 ****
9954 O1      4.447560    5.859302  -17.298872 O    1608 MOH    -0.6497 ****
9955 HO1     3.796886    5.504942  -16.689346 H    1608 MOH     0.4215 ****
9956 HC1     7.138012   11.959348  -15.682426 H    1609 MOH     0.0372 ****
9957 C1      7.794460   12.234915  -14.857233 C    1609 MOH     0.1166 ****
9958 HC2     7.247709   12.198990  -13.913952 H    1609 MOH     0.0372 ****
9959 HC3     8.140870   13.257577  -15.007846 H    1609 MOH     0.0372 ****
9960 O1      8.913365   11.362897  -14.792179 O    1609 MOH    -0.6497 ****
9961 HO1     9.518428   11.689496  -14.121842 H    1609 MOH     0.4215 ****
9962 HC1    10.914461   16.674207   -7.914858 H    1610 MOH     0.0372 ****
9963 C1     10.602691   16.255345   -6.957436 C    1610 MOH     0.1166 ****
9964 HC2    10.075571   17.001622   -6.364880 H    1610 MOH     0.0372 ****
9965 HC3    11.495275   15.921806   -6.429227 H    1610 MOH     0.0372 ****
9966 O1      9.788050   15.141235   -7.184417 O    1610 MOH    -0.6497 ****
9967 HO1     9.102158   15.382510   -7.810207 H    1610 MOH     0.4215 ****
9968 HC1     3.594237   22.068392  -15.634343 H    1611 MOH     0.0372 ****
9969 C1      2.686642   22.448063  -16.103862 C    1611 MOH     0.1166 ****
9970 HC2     2.817123   22.428059  -17.186443 H    1611 MOH     0.0372 ****
9971 HC3     2.543459   23.478890  -15.782129 H    1611 MOH     0.0372 ****
9972 O1      1.546375   21.654836  -15.729803 O    1611 MOH    -0.6497 ****
9973 HO1     0.773303   22.159840  -15.992139 H    1611 MOH     0.4215 ****
9974 HC1    -3.523915    1.891537  -15.629393 H    1612 MOH     0.0372 ****
9975 C1     -2.880169    2.675782  -16.026080 C    1612 MOH     0.1166 ****
9976 HC2    -2.846106    3.477173  -15.288568 H    1612 MOH     0.0372 ****
9977 HC3    -3.279118    3.115873  -16.941076 H    1612 MOH     0.0372 ****
9978 O1     -1.568430    2.211195  -16.256597 O    1612 MOH    -0.6497 ****
9979 HO1    -1.126179    2.998298  -16.581866 H    1612 MOH     0.4215 ****
9980 HC1     5.751794   13.598465   -9.122597 H    1613 MOH     0.0372 ****
9981 C1      6.333763   13.840964  -10.012137 C    1613 MOH     0.1166 ****
9982 HC2     6.297390   13.019160  -10.727022 H    1613 MOH     0.0372 ****
9983 HC3     7.360870   13.984259   -9.674847 H    1613 MOH     0.0372 ****
9984 O1      5.867842   15.085305  -10.543881 O    1613 MOH    -0.6497 ****
9985 HO1     6.283534   15.762589  -10.005773 H    1613 MOH     0.4215 ****
9986 HC1     3.246094    9.032208  -11.451099 H    1614 MOH     0.0372 ****
9987 C1      3.408907    8.808079  -10.396803 C    1614 MOH     0.1166 ****
9988 HC2     3.976442    7.881356  -10.304879 H    1614 MOH     0.0372 ****
9989 HC3     2.425102    8.690504   -9.942841 H    1614 MOH     0.0372 ****
9990 O1      4.101727    9.884630   -9.804955 O    1614 MOH    -0.6497 ****
9991 HO1     4.940040    9.975261  -10.263160 H    1614 MOH     0.4215 ****
9992 HC1     2.968389    8.927288  -20.787030 H    1615 MOH     0.0372 ****
9993 C1      2.835021    7.904626  -21.139876 C    1615 MOH     0.1166 ****
9994 HC2     1.836205    7.827059  -21.568383 H    1615 MOH     0.0372 ****
9995 HC3     2.908344    7.187742  -20.322461 H    1615 MOH     0.0372 ****
9996 O1      3.755317    7.627425  -22.151746 O    1615 MOH    -0.6497 ****
9997 HO1     3.871365    6.679473  -22.243670 H    1615 MOH     0.4215 ****
9998 HC1     5.155392   -0.347297  -21.829306 H    1616 MOH     0.0372 ****
9999 C1      4.418693   -0.001511  -21.104521 C    1616 MOH     0.1166 ****
10000 HC2     4.147915   -0.809434  -20.423577 H    1616 MOH     0.0372 ****
10001 HC3     3.509943    0.298144  -21.624952 H    1616 MOH     0.0372 ****
10002 O1      4.858634    1.079939  -20.310440 O    1616 MOH    -0.6497 ****
10003 HO1     5.806065    1.011353  -20.174676 H    1616 MOH     0.4215 ****
10004 HC1     6.103978   16.207988  -21.477166 H    1617 MOH     0.0372 ****
10005 C1      5.256428   15.543359  -21.307461 C    1617 MOH     0.1166 ****
10006 HC2     4.390980   16.187167  -21.151190 H    1617 MOH     0.0372 ****
10007 HC3     5.489100   14.941602  -20.429234 H    1617 MOH     0.0372 ****
10008 O1      5.123060   14.841581  -22.522977 O    1617 MOH    -0.6497 ****
10009 HO1     5.968878   14.435782  -22.728038 H    1617 MOH     0.4215 ****
10010 HC1     7.521373   11.590291   -6.895917 H    1618 MOH     0.0372 ****
10011 C1      7.584881   10.667242   -7.472209 C    1618 MOH     0.1166 ****
10012 HC2     8.616606   10.463118   -7.757881 H    1618 MOH     0.0372 ****
10013 HC3     6.967694   10.779102   -8.363164 H    1618 MOH     0.0372 ****
10014 O1      7.066998    9.613961   -6.707120 O    1618 MOH    -0.6497 ****
10015 HO1     7.316991    8.789300   -7.131384 H    1618 MOH     0.4215 ****
10016 HC1    -4.529659   10.897902  -15.378371 H    1619 MOH     0.0372 ****
10017 C1     -4.695936   11.968329  -15.259577 C    1619 MOH     0.1166 ****
10018 HC2    -4.342598   12.289212  -14.279527 H    1619 MOH     0.0372 ****
10019 HC3    -5.762879   12.181435  -15.331701 H    1619 MOH     0.0372 ****
10020 O1     -4.008889   12.682764  -16.269325 O    1619 MOH    -0.6497 ****
10021 HO1    -4.099533   12.152857  -17.064113 H    1619 MOH     0.4215 ****
10022 HC1     2.133540   17.213912  -18.227304 H    1620 MOH     0.0372 ****
10023 C1      3.004762   16.558673  -18.246396 C    1620 MOH     0.1166 ****
10024 HC2     3.004185   15.987125  -19.174120 H    1620 MOH     0.0372 ****
10025 HC3     2.977049   15.849546  -17.418374 H    1620 MOH     0.0372 ****
10026 O1      4.183134   17.343326  -18.172856 O    1620 MOH    -0.6497 ****
10027 HO1     4.153689   17.854045  -17.360391 H    1620 MOH     0.4215 ****
10028 HC1    -2.051672   10.448829  -15.702225 H    1621 MOH     0.0372 ****
10029 C1     -1.784359    9.444130  -15.373421 C    1621 MOH     0.1166 ****
10030 HC2    -0.839814    9.154682  -15.833747 H    1621 MOH     0.0372 ****
10031 HC3    -2.547038    8.730512  -15.683134 H    1621 MOH     0.0372 ****
10032 O1     -1.616927    9.451887  -13.944358 O    1621 MOH    -0.6497 ****
10033 HO1    -2.445425    9.639681  -13.497466 H    1621 MOH     0.4215 ****
10034 HC1    15.082929   10.264301   -8.339829 H    1622 MOH     0.0372 ****
10035 C1     15.941449   10.626009   -8.905515 C    1622 MOH     0.1166 ****
10036 HC2    15.593307   11.145301   -9.797884 H    1622 MOH     0.0372 ****
10037 HC3    16.570761    9.785426   -9.198964 H    1622 MOH     0.0372 ****
10038 O1     16.690850   11.515582   -8.110020 O    1622 MOH    -0.6497 ****
10039 HO1    16.858282   11.097127   -7.262199 H    1622 MOH     0.4215 ****
10040 HC1    15.881982   11.585392  -18.271851 H    1623 MOH     0.0372 ****
10041 C1     15.435113   11.999356  -19.175534 C    1623 MOH     0.1166 ****
10042 HC2    14.407430   12.318198  -19.003707 H    1623 MOH     0.0372 ****
10043 HC3    15.465713   11.226950  -19.944866 H    1623 MOH     0.0372 ****
10044 O1     16.245713   13.063659  -19.563735 O    1623 MOH    -0.6497 ****
10045 HO1    16.427578   13.609896  -18.795817 H    1623 MOH     0.4215 ****
10046 HC1     9.107932    9.333086  -23.677683 H    1624 MOH     0.0372 ****
10047 C1      8.183594    9.848296  -23.939312 C    1624 MOH     0.1166 ****
10048 HC2     7.470566    9.801347  -23.115533 H    1624 MOH     0.0372 ****
10049 HC3     7.747694    9.402080  -24.832388 H    1624 MOH     0.0372 ****
10050 O1      8.421462   11.197556  -24.218619 O    1624 MOH    -0.6497 ****
10051 HO1     8.926066   11.227767  -25.034621 H    1624 MOH     0.4215 ****
10052 HC1    -0.632545   -0.886593  -23.138160 H    1625 MOH     0.0372 ****
10053 C1     -0.118703   -0.577549  -22.228114 C    1625 MOH     0.1166 ****
10054 HC2     0.964406   -0.603677  -22.344079 H    1625 MOH     0.0372 ****
10055 HC3    -0.421812   -1.216866  -21.397970 H    1625 MOH     0.0372 ****
10056 O1     -0.558067    0.679856  -21.945271 O    1625 MOH    -0.6497 ****
10057 HO1    -0.890043    1.041972  -22.770465 H    1625 MOH     0.4215 ****
10058 HC1     7.664556   14.412512   -3.038650 H    1626 MOH     0.0372 ****
10059 C1      8.102187   13.509058   -3.463621 C    1626 MOH     0.1166 ****
10060 HC2     8.345829   13.704201   -4.507311 H    1626 MOH     0.0372 ****
10061 HC3     7.396665   12.682764   -3.370283 H    1626 MOH     0.0372 ****
10062 O1      9.238413   13.211445   -2.716209 O    1626 MOH    -0.6497 ****
10063 HO1     9.865992   13.937311   -2.764293 H    1626 MOH     0.4215 ****
10064 HC1     0.827574   17.940185  -16.700660 H    1627 MOH     0.0372 ****
10065 C1      1.393955   18.245147  -15.820312 C    1627 MOH     0.1166 ****
10066 HC2     1.779625   17.351491  -15.328873 H    1627 MOH     0.0372 ****
10067 HC3     0.739817   18.768929  -15.123812 H    1627 MOH     0.0372 ****
10068 O1      2.488611   19.059602  -16.225484 O    1627 MOH    -0.6497 ****
10069 HO1     2.137582   19.934886  -16.402261 H    1627 MOH     0.4215 ****
10070 HC1    -7.255907    8.535369  -17.303822 H    1628 MOH     0.0372 ****
10071 C1     -6.697032    9.167746  -16.614393 C    1628 MOH     0.1166 ****
10072 HC2    -6.651999   10.168363  -17.045021 H    1628 MOH     0.0372 ****
10073 HC3    -5.683782    8.773378  -16.533783 H    1628 MOH     0.0372 ****
10074 O1     -7.362140    9.179993  -15.326045 O    1628 MOH    -0.6497 ****
10075 HO1    -6.895063    8.561906  -14.760359 H    1628 MOH     0.4215 ****
10076 HC1     1.219018    2.322239  -19.404636 H    1629 MOH     0.0372 ****
10077 C1      0.336826    2.905625  -19.143714 C    1629 MOH     0.1166 ****
10078 HC2     0.641090    3.904201  -18.832587 H    1629 MOH     0.0372 ****
10079 HC3    -0.198377    2.415727  -18.330541 H    1629 MOH     0.0372 ****
10080 O1     -0.484166    2.960739  -20.311147 O    1629 MOH    -0.6497 ****
10081 HO1    -0.574810    2.071982  -20.663994 H    1629 MOH     0.4215 ****
10082 HC1     2.949336    4.185076  -14.338216 H    1630 MOH     0.0372 ****
10083 C1      2.637567    5.228558  -14.373572 C    1630 MOH     0.1166 ****
10084 HC2     3.443548    5.885838  -14.045474 H    1630 MOH     0.0372 ****
10085 HC3     1.794636    5.351849  -13.694749 H    1630 MOH     0.0372 ****
10086 O1      2.184347    5.574753  -15.667577 O    1630 MOH    -0.6497 ****
10087 HO1     1.973037    6.510458  -15.637879 H    1630 MOH     0.4215 ****
10088 HC1     9.645445   12.198581   -6.840763 H    1631 MOH     0.0372 ****
10089 C1     10.570937   12.498236   -6.347203 C    1631 MOH     0.1166 ****
10090 HC2    11.014919   11.644180   -5.835257 H    1631 MOH     0.0372 ****
10091 HC3    10.324986   13.250229   -5.597669 H    1631 MOH     0.0372 ****
10092 O1     11.453128   12.997523   -7.373215 O    1631 MOH    -0.6497 ****
10093 HO1    11.262603   13.935678   -7.448168 H    1631 MOH     0.4215 ****
10094 HC1    -1.325365    3.355923  -13.521508 H    1632 MOH     0.0372 ****
10095 C1     -0.554025    3.062801  -12.808744 C    1632 MOH     0.1166 ****
10096 HC2     0.343754    2.806421  -13.371601 H    1632 MOH     0.0372 ****
10097 HC3    -0.884270    2.174453  -12.269929 H    1632 MOH     0.0372 ****
10098 O1     -0.293640    4.140168  -11.900112 O    1632 MOH    -0.6497 ****
10099 HO1    -0.959902    4.115265  -11.209269 H    1632 MOH     0.4215 ****
10100 HC1    -1.454692    3.966663   -7.638380 H    1633 MOH     0.0372 ****
10101 C1     -0.971449    3.816019   -8.603580 C    1633 MOH     0.1166 ****
10102 HC2    -0.515920    2.826425   -8.623379 H    1633 MOH     0.0372 ****
10103 HC3    -0.211079    4.585159   -8.742173 H    1633 MOH     0.0372 ****
10104 O1     -2.002597    3.865417   -9.589994 O    1633 MOH    -0.6497 ****
10105 HO1    -2.515284    4.666400   -9.459887 H    1633 MOH     0.4215 ****
10106 HC1    -5.754796    5.394307  -13.971935 H    1634 MOH     0.0372 ****
10107 C1     -5.167054    6.310008  -13.910417 C    1634 MOH     0.1166 ****
10108 HC2    -4.701132    6.520664  -14.873496 H    1634 MOH     0.0372 ****
10109 HC3    -4.378393    6.161406  -13.173612 H    1634 MOH     0.0372 ****
10110 O1     -5.948786    7.434732  -13.534943 O    1634 MOH    -0.6497 ****
10111 HO1    -6.348890    7.270616  -12.677930 H    1634 MOH     0.4215 ****
10112 HC1     8.062350   16.067550  -11.492819 H    1635 MOH     0.0372 ****
10113 C1      9.008050   16.410479  -11.072797 C    1635 MOH     0.1166 ****
10114 HC2     8.894312   17.384968  -10.596914 H    1635 MOH     0.0372 ****
10115 HC3     9.737821   16.523972  -11.874656 H    1635 MOH     0.0372 ****
10116 O1      9.449723   15.488246  -10.100525 O    1635 MOH    -0.6497 ****
10117 HO1    10.281107   15.100002  -10.382661 H    1635 MOH     0.4215 ****
10118 HC1     7.980367    8.001789  -16.422060 H    1636 MOH     0.0372 ****
10119 C1      8.762099    8.674990  -16.773492 C    1636 MOH     0.1166 ****
10120 HC2     9.321551    8.240206  -17.601514 H    1636 MOH     0.0372 ****
10121 HC3     9.447414    8.879931  -15.951834 H    1636 MOH     0.0372 ****
10122 O1      8.188213    9.874424  -17.218969 O    1636 MOH    -0.6497 ****
10123 HO1     8.383357   10.517823  -16.533076 H    1636 MOH     0.4215 ****
10124 HC1     7.378652   20.201717  -12.059211 H    1637 MOH     0.0372 ****
10125 C1      6.577867   19.807758  -11.433422 C    1637 MOH     0.1166 ****
10126 HC2     6.012064   19.077402  -12.012542 H    1637 MOH     0.0372 ****
10127 HC3     5.905254   20.584654  -11.072090 H    1637 MOH     0.0372 ****
10128 O1      7.074966   19.066787  -10.389025 O    1637 MOH    -0.6497 ****
10129 HO1     7.619407   19.662830   -9.870009 H    1637 MOH     0.4215 ****
10130 HC1    19.487997   21.440751   -7.552820 H    1638 MOH     0.0372 ****
10131 C1     19.549196   22.220505   -6.794801 C    1638 MOH     0.1166 ****
10132 HC2    19.909462   21.774698   -5.867077 H    1638 MOH     0.0372 ****
10133 HC3    18.556153   22.645900   -6.649137 H    1638 MOH     0.0372 ****
10134 O1     20.420417   23.243167   -7.222601 O    1638 MOH    -0.6497 ****
10135 HO1    21.307227   22.883092   -7.289069 H    1638 MOH     0.4215 ****
10136 HC1    21.739663   15.808149  -14.329024 H    1639 MOH     0.0372 ****
10137 C1     20.890958   16.242934  -13.800815 C    1639 MOH     0.1166 ****
10138 HC2    20.754703   17.270087  -14.138812 H    1639 MOH     0.0372 ****
10139 HC3    21.055503   16.230686  -12.723184 H    1639 MOH     0.0372 ****
10140 O1     19.725288   15.544829  -14.134569 O    1639 MOH    -0.6497 ****
10141 HO1    19.752423   14.744254  -13.604947 H    1639 MOH     0.4215 ****
10142 HC1    11.991681   23.969849   -7.096736 H    1640 MOH     0.0372 ****
10143 C1     10.971503   23.677135   -6.848541 C    1640 MOH     0.1166 ****
10144 HC2    10.810422   23.734698   -5.773032 H    1640 MOH     0.0372 ****
10145 HC3    10.763079   22.654882   -7.165325 H    1640 MOH     0.0372 ****
10146 O1     10.085270   24.569566   -7.449582 O    1640 MOH    -0.6497 ****
10147 HO1    10.536758   24.945971   -8.209015 H    1640 MOH     0.4215 ****
10148 HC1     6.590569   26.756552  -10.892485 H    1641 MOH     0.0372 ****
10149 C1      7.630954   26.783905  -11.218461 C    1641 MOH     0.1166 ****
10150 HC2     8.215233   26.144180  -10.555902 H    1641 MOH     0.0372 ****
10151 HC3     7.972168   27.817589  -11.164721 H    1641 MOH     0.0372 ****
10152 O1      7.697927   26.301763  -12.541458 O    1641 MOH    -0.6497 ****
10153 HO1     7.103256   25.548954  -12.585299 H    1641 MOH     0.4215 ****
10154 HC1     9.470969   22.074352  -15.052394 H    1642 MOH     0.0372 ****
10155 C1     10.385492   22.380539  -15.560097 C    1642 MOH     0.1166 ****
10156 HC2    10.980740   23.034961  -14.922994 H    1642 MOH     0.0372 ****
10157 HC3    10.110096   22.926775  -16.462365 H    1642 MOH     0.0372 ****
10158 O1     11.087550   21.241118  -15.958198 O    1642 MOH    -0.6497 ****
10159 HO1    12.022280   21.439935  -15.868395 H    1642 MOH     0.4215 ****
10160 HC1     6.416787   21.736731  -19.908097 H    1643 MOH     0.0372 ****
10161 C1      6.459510   21.978414  -18.846022 C    1643 MOH     0.1166 ****
10162 HC2     7.496432   21.916360  -18.515096 H    1643 MOH     0.0372 ****
10163 HC3     5.861953   21.276635  -18.264073 H    1643 MOH     0.0372 ****
10164 O1      6.025920   23.272153  -18.576614 O    1643 MOH    -0.6497 ****
10165 HO1     5.256313   23.463621  -19.117551 H    1643 MOH     0.4215 ****
10166 HC1     3.813514   25.674286  -12.192854 H    1644 MOH     0.0372 ****
10167 C1      3.378769   24.788795  -11.729700 C    1644 MOH     0.1166 ****
10168 HC2     2.966541   24.113961  -12.479940 H    1644 MOH     0.0372 ****
10169 HC3     2.556623   25.074977  -11.072797 H    1644 MOH     0.0372 ****
10170 O1      4.284055   24.086200  -10.934204 O    1644 MOH    -0.6497 ****
10171 HO1     3.757511   23.368499  -10.573580 H    1644 MOH     0.4215 ****
10172 HC1    17.477086   20.578531   -5.473926 H    1645 MOH     0.0372 ****
10173 C1     17.776730   19.531374   -5.488775 C    1645 MOH     0.1166 ****
10174 HC2    18.410661   19.342763   -6.355688 H    1645 MOH     0.0372 ****
10175 HC3    16.908973   18.877360   -5.567971 H    1645 MOH     0.0372 ****
10176 O1     18.481675   19.220289   -4.295179 O    1645 MOH    -0.6497 ****
10177 HO1    18.915842   18.371949   -4.413973 H    1645 MOH     0.4215 ****
10178 HC1    18.150853   21.694273  -12.897840 H    1646 MOH     0.0372 ****
10179 C1     18.010557   21.539955  -13.966985 C    1646 MOH     0.1166 ****
10180 HC2    17.814258   22.494440  -14.456303 H    1646 MOH     0.0372 ****
10181 HC3    17.176286   20.861038  -14.143055 H    1646 MOH     0.0372 ****
10182 O1     19.186042   20.985554  -14.518529 O    1646 MOH    -0.6497 ****
10183 HO1    19.832675   20.884717  -13.816371 H    1646 MOH     0.4215 ****
10184 HC1    24.612558   15.605250  -12.652474 H    1647 MOH     0.0372 ****
10185 C1     24.446281   15.692207  -11.578378 C    1647 MOH     0.1166 ****
10186 HC2    24.518449   16.748345  -11.318870 H    1647 MOH     0.0372 ****
10187 HC3    25.233209   15.138214  -11.065726 H    1647 MOH     0.0372 ****
10188 O1     23.120684   15.173323  -11.344326 O    1647 MOH    -0.6497 ****
10189 HO1    22.809493   15.521967  -10.505697 H    1647 MOH     0.4215 ****
10190 HC1     7.986024   24.175198   -9.453523 H    1648 MOH     0.0372 ****
10191 C1      7.594581   23.406058  -10.118203 C    1648 MOH     0.1166 ****
10192 HC2     8.093989   23.439943  -11.086232 H    1648 MOH     0.0372 ****
10193 HC3     6.523019   23.568541  -10.242654 H    1648 MOH     0.0372 ****
10194 O1      7.735454   22.139264   -9.533426 O    1648 MOH    -0.6497 ****
10195 HO1     7.289163   22.138856   -8.684191 H    1648 MOH     0.4215 ****
10196 HC1    17.821186   17.205992  -12.295385 H    1649 MOH     0.0372 ****
10197 C1     17.635280   17.791828  -13.195532 C    1649 MOH     0.1166 ****
10198 HC2    17.653177   17.168024  -14.089315 H    1649 MOH     0.0372 ****
10199 HC3    18.382948   18.577298  -13.304426 H    1649 MOH     0.0372 ****
10200 O1     16.392822   18.380114  -13.066131 O    1649 MOH    -0.6497 ****
10201 HO1    16.094332   18.490749  -13.971935 H    1649 MOH     0.4215 ****
10202 HC1    19.005909   20.781022  -10.876221 H    1650 MOH     0.0372 ****
10203 C1     19.759929   20.027395  -11.103910 C    1650 MOH     0.1166 ****
10204 HC2    19.273800   19.137822  -11.503425 H    1650 MOH     0.0372 ****
10205 HC3    20.248944   19.737947  -10.174064 H    1650 MOH     0.0372 ****
10206 O1     20.694081   20.569549  -12.048605 O    1650 MOH    -0.6497 ****
10207 HO1    20.910588   21.467287  -11.789096 H    1650 MOH     0.4215 ****
10208 HC1    14.942518   14.151478  -13.610603 H    1651 MOH     0.0372 ****
10209 C1     14.535486   15.152094  -13.755560 C    1651 MOH     0.1166 ****
10210 HC2    13.489905   15.106371  -14.061030 H    1651 MOH     0.0372 ****
10211 HC3    15.092052   15.609741  -14.572269 H    1651 MOH     0.0372 ****
10212 O1     14.690216   15.975939  -12.598734 O    1651 MOH    -0.6497 ****
10213 HO1    14.973117   16.856123  -12.858949 H    1651 MOH     0.4215 ****
10214 HC1    14.348424   18.556885  -11.388167 H    1652 MOH     0.0372 ****
10215 C1     14.436759   19.542805  -10.932083 C    1652 MOH     0.1166 ****
10216 HC2    13.835737   19.574648  -10.024158 H    1652 MOH     0.0372 ****
10217 HC3    14.084575   20.278060  -11.655453 H    1652 MOH     0.0372 ****
10218 O1     15.776789   19.746521  -10.624492 O    1652 MOH    -0.6497 ****
10219 HO1    16.261763   19.279893  -11.308264 H    1652 MOH     0.4215 ****
10220 HC1    16.311993   13.719551  -10.574287 H    1653 MOH     0.0372 ****
10221 C1     17.388174   13.727716  -10.743992 C    1653 MOH     0.1166 ****
10222 HC2    17.808485   14.587895  -10.224269 H    1653 MOH     0.0372 ****
10223 HC3    17.591978   13.788137  -11.813138 H    1653 MOH     0.0372 ****
10224 O1     17.981690   12.582988  -10.243361 O    1653 MOH    -0.6497 ****
10225 HO1    17.519809   12.321709   -9.444330 H    1653 MOH     0.4215 ****
10226 HC1    12.127358   25.372999  -13.704649 H    1654 MOH     0.0372 ****
10227 C1     13.159083   25.089266  -13.910417 C    1654 MOH     0.1166 ****
10228 HC2    13.429860   24.263380  -13.253515 H    1654 MOH     0.0372 ****
10229 HC3    13.807447   25.940055  -13.699699 H    1654 MOH     0.0372 ****
10230 O1     13.297070   24.770016  -15.272304 O    1654 MOH    -0.6497 ****
10231 HO1    13.000312   25.562834  -15.724853 H    1654 MOH     0.4215 ****
10232 HC1    23.752883   20.810824   -6.061531 H    1655 MOH     0.0372 ****
10233 C1     23.827938   21.852674   -6.371244 C    1655 MOH     0.1166 ****
10234 HC2    24.866592   22.077210   -6.614489 H    1655 MOH     0.0372 ****
10235 HC3    23.465940   22.454023   -5.536151 H    1655 MOH     0.0372 ****
10236 O1     22.939974   22.010257   -7.447461 O    1655 MOH    -0.6497 ****
10237 HO1    23.307169   21.489741   -8.165174 H    1655 MOH     0.4215 ****
10238 HC1    13.477780   16.898172   -5.512817 H    1656 MOH     0.0372 ****
10239 C1     14.470245   16.918993   -5.963244 C    1656 MOH     0.1166 ****
10240 HC2    14.993325   17.830203   -5.673330 H    1656 MOH     0.0372 ****
10241 HC3    14.410201   16.863471   -7.049360 H    1656 MOH     0.0372 ****
10242 O1     15.205212   15.854281   -5.514938 O    1656 MOH    -0.6497 ****
10243 HO1    14.758343   15.058197   -5.810509 H    1656 MOH     0.4215 ****
10244 HC1    11.417795   29.127658  -12.507517 H    1657 MOH     0.0372 ****
10245 C1     11.178194   28.494873  -11.653332 C    1657 MOH     0.1166 ****
10246 HC2    10.132613   28.619389  -11.372611 H    1657 MOH     0.0372 ****
10247 HC3    11.810393   28.802284  -10.819653 H    1657 MOH     0.0372 ****
10248 O1     11.480148   27.144796  -11.969409 O    1657 MOH    -0.6497 ****
10249 HO1    11.017691   26.871678  -12.764904 H    1657 MOH     0.4215 ****
10250 HC1    20.653089   17.501155   -9.986681 H    1658 MOH     0.0372 ****
10251 C1     20.904237   16.980639   -9.062493 C    1658 MOH     0.1166 ****
10252 HC2    20.237397   16.126991   -8.941577 H    1658 MOH     0.0372 ****
10253 HC3    20.781261   17.650574   -8.211843 H    1658 MOH     0.0372 ****
10254 O1     22.244267   16.549937   -9.159366 O    1658 MOH    -0.6497 ****
10255 HO1    22.434215   15.994311   -8.400641 H    1658 MOH     0.4215 ****
10256 HC1    12.179320   23.729391  -10.765913 H    1659 MOH     0.0372 ****
10257 C1     11.169534   24.128658  -10.673989 C    1659 MOH     0.1166 ****
10258 HC2    10.556965   23.387279  -10.160630 H    1659 MOH     0.0372 ****
10259 HC3    10.768275   24.320535  -11.669595 H    1659 MOH     0.0372 ****
10260 O1     11.237661   25.317477   -9.911728 O    1659 MOH    -0.6497 ****
10261 HO1    11.571947   26.010682  -10.485899 H    1659 MOH     0.4215 ****
10262 HC1     7.923093   30.965592  -12.342054 H    1660 MOH     0.0372 ****
10263 C1      8.785655   31.428545  -12.821472 C    1660 MOH     0.1166 ****
10264 HC2     9.572583   31.543263  -12.075475 H    1660 MOH     0.0372 ****
10265 HC3     8.468689   32.420589  -13.143913 H    1660 MOH     0.0372 ****
10266 O1      9.168438   30.641035  -13.980420 O    1660 MOH    -0.6497 ****
10267 HO1     8.474463   30.687167  -14.641565 H    1660 MOH     0.4215 ****
10268 HC1    14.609387   26.403009   -6.081330 H    1661 MOH     0.0372 ****
10269 C1     15.217337   27.273803   -6.329525 C    1661 MOH     0.1166 ****
10270 HC2    16.266959   27.004359   -6.444076 H    1661 MOH     0.0372 ****
10271 HC3    15.160756   27.995994   -5.514231 H    1661 MOH     0.0372 ****
10272 O1     14.822429   27.835961   -7.539385 O    1661 MOH    -0.6497 ****
10273 HO1    15.104176   27.237469   -8.235178 H    1661 MOH     0.4215 ****
10274 HC1    13.668883   18.658947  -15.879709 H    1662 MOH     0.0372 ****
10275 C1     14.525671   18.400934  -16.503377 C    1662 MOH     0.1166 ****
10276 HC2    14.711578   19.194161  -17.226748 H    1662 MOH     0.0372 ****
10277 HC3    14.279720   17.497073  -17.060577 H    1662 MOH     0.0372 ****
10278 O1     15.689032   18.210282  -15.702225 O    1662 MOH    -0.6497 ****
10279 HO1    16.385316   17.862455  -16.263668 H    1662 MOH     0.4215 ****
10280 HC1    18.692985   24.550378  -11.668888 H    1663 MOH     0.0372 ****
10281 C1     19.146783   25.429745  -11.212097 C    1663 MOH     0.1166 ****
10282 HC2    19.983940   25.746546  -11.834351 H    1663 MOH     0.0372 ****
10283 HC3    19.450469   25.180714  -10.195278 H    1663 MOH     0.0372 ****
10284 O1     18.196464   26.427504  -11.247453 O    1663 MOH    -0.6497 ****
10285 HO1    17.868529   26.483026  -12.148307 H    1663 MOH     0.4215 ****
10286 HC1    22.315281   20.609966   -9.826168 H    1664 MOH     0.0372 ****
10287 C1     23.138005   19.919210  -10.011430 C    1664 MOH     0.1166 ****
10288 HC2    23.413401   20.040459  -11.058655 H    1664 MOH     0.0372 ****
10289 HC3    22.829700   18.879401   -9.904657 H    1664 MOH     0.0372 ****
10290 O1     24.228042   20.229887   -9.126839 O    1664 MOH    -0.6497 ****
10291 HO1    24.838879   19.489324   -9.114111 H    1664 MOH     0.4215 ****
10292 HC1    19.656005   23.797160   -2.407911 H    1665 MOH     0.0372 ****
10293 C1     18.764577   24.423821   -2.439731 C    1665 MOH     0.1166 ****
10294 HC2    17.876035   23.793078   -2.480036 H    1665 MOH     0.0372 ****
10295 HC3    18.773814   25.041909   -3.337756 H    1665 MOH     0.0372 ****
10296 O1     18.774969   25.271345   -1.318259 O    1665 MOH    -0.6497 ****
10297 HO1    19.530720   25.851466   -1.434932 H    1665 MOH     0.4215 ****
10298 HC1    20.399633   11.608091  -12.453777 H    1666 MOH     0.0372 ****
10299 C1     20.981024   12.365392  -11.926982 C    1666 MOH     0.1166 ****
10300 HC2    22.034689   12.121259  -12.064161 H    1666 MOH     0.0372 ****
10301 HC3    20.751239   12.376006  -10.862079 H    1666 MOH     0.0372 ****
10302 O1     20.852853   13.625654  -12.479233 O    1666 MOH    -0.6497 ****
10303 HO1    21.651328   14.102080  -12.238109 H    1666 MOH     0.4215 ****
10304 HC1    15.555086   22.965150   -7.371800 H    1667 MOH     0.0372 ****
10305 C1     15.900342   22.122117   -7.969306 C    1667 MOH     0.1166 ****
10306 HC2    16.640505   21.590170   -7.370386 H    1667 MOH     0.0372 ****
10307 HC3    16.342015   22.507912   -8.887837 H    1667 MOH     0.0372 ****
10308 O1     14.847832   21.204375   -8.303060 O    1667 MOH    -0.6497 ****
10309 HO1    15.126693   20.691207   -9.064614 H    1667 MOH     0.4215 ****
10310 HC1    20.620180   11.285575  -17.116439 H    1668 MOH     0.0372 ****
10311 C1     20.587272   12.370699  -17.215434 C    1668 MOH     0.1166 ****
10312 HC2    21.032409   12.839776  -16.337914 H    1668 MOH     0.0372 ****
10313 HC3    19.549773   12.696481  -17.290387 H    1668 MOH     0.0372 ****
10314 O1     21.273164   12.747920  -18.380746 O    1668 MOH    -0.6497 ****
10315 HO1    21.374777   13.701180  -18.340441 H    1668 MOH     0.4215 ****
10316 HC1     8.074359   18.293973  -15.629393 H    1669 MOH     0.0372 ****
10317 C1      8.718105   19.078218  -16.026080 C    1669 MOH     0.1166 ****
10318 HC2     8.752168   19.879610  -15.288568 H    1669 MOH     0.0372 ****
10319 HC3     8.319156   19.518310  -16.941076 H    1669 MOH     0.0372 ****
10320 O1     10.029845   18.613632  -16.256597 O    1669 MOH    -0.6497 ****
10321 HO1    10.472095   19.400734  -16.581866 H    1669 MOH     0.4215 ****
10322 HC1    14.844368   25.434644  -11.451099 H    1670 MOH     0.0372 ****
10323 C1     15.007181   25.210516  -10.396803 C    1670 MOH     0.1166 ****
10324 HC2    15.574716   24.283792  -10.304879 H    1670 MOH     0.0372 ****
10325 HC3    14.023376   25.092940   -9.942841 H    1670 MOH     0.0372 ****
10326 O1     15.700001   26.287067   -9.804955 O    1670 MOH    -0.6497 ****
10327 HO1    16.538314   26.377698  -10.263160 H    1670 MOH     0.4215 ****
10328 HC1    12.779764   19.368483   -6.691564 H    1671 MOH     0.0372 ****
10329 C1     12.386588   19.803267   -5.773032 C    1671 MOH     0.1166 ****
10330 HC2    12.202413   20.867979   -5.914453 H    1671 MOH     0.0372 ****
10331 HC3    13.085759   19.659156   -4.949253 H    1671 MOH     0.0372 ****
10332 O1     11.222073   19.142313   -5.444227 O    1671 MOH    -0.6497 ****
10333 HO1    10.797720   19.591795   -4.709543 H    1671 MOH     0.4215 ****
10334 HC1    15.590882   13.804467  -16.067092 H    1672 MOH     0.0372 ****
10335 C1     16.626071   14.108612  -16.223363 C    1672 MOH     0.1166 ****
10336 HC2    17.214969   13.205975  -16.390947 H    1672 MOH     0.0372 ****
10337 HC3    16.999040   14.665462  -15.364935 H    1672 MOH     0.0372 ****
10338 O1     16.623762   14.840193  -17.399989 O    1672 MOH    -0.6497 ****
10339 HO1    17.261157   15.549320  -17.290387 H    1672 MOH     0.4215 ****
10340 HC1    19.119647   27.992728   -6.895917 H    1673 MOH     0.0372 ****
10341 C1     19.183156   27.069679   -7.472209 C    1673 MOH     0.1166 ****
10342 HC2    20.214881   26.865554   -7.757881 H    1673 MOH     0.0372 ****
10343 HC3    18.565968   27.181539   -8.363164 H    1673 MOH     0.0372 ****
10344 O1     18.665272   26.016398   -6.707120 O    1673 MOH    -0.6497 ****
10345 HO1    18.915265   25.191736   -7.131384 H    1673 MOH     0.4215 ****
10346 HC1     9.546602   26.851266  -15.702225 H    1674 MOH     0.0372 ****
10347 C1      9.813915   25.846567  -15.373421 C    1674 MOH     0.1166 ****
10348 HC2    10.758461   25.557119  -15.833747 H    1674 MOH     0.0372 ****
10349 HC3     9.051236   25.132949  -15.683134 H    1674 MOH     0.0372 ****
10350 O1      9.981347   25.854323  -13.944358 O    1674 MOH    -0.6497 ****
10351 HO1     9.152849   26.042118  -13.497466 H    1674 MOH     0.4215 ****
10352 HC1    12.312110   19.874302   -1.473823 H    1675 MOH     0.0372 ****
10353 C1     13.206426   19.431761   -1.034002 C    1675 MOH     0.1166 ****
10354 HC2    13.272243   19.704879    0.018880 H    1675 MOH     0.0372 ****
10355 HC3    14.096700   19.801634   -1.543119 H    1675 MOH     0.0372 ****
10356 O1     13.155041   18.019222   -1.149968 O    1675 MOH    -0.6497 ****
10357 HO1    14.060327   17.710995   -1.061579 H    1675 MOH     0.4215 ****
10358 HC1    11.716285   28.254007   -7.887281 H    1676 MOH     0.0372 ****
10359 C1     11.649889   27.993544   -6.830864 C    1676 MOH     0.1166 ****
10360 HC2    11.757854   26.915361   -6.707120 H    1676 MOH     0.0372 ****
10361 HC3    10.666084   28.308304   -6.482260 H    1676 MOH     0.0372 ****
10362 O1     12.633694   28.712470   -6.107493 O    1676 MOH    -0.6497 ****
10363 HO1    13.456418   28.603467   -6.590447 H    1676 MOH     0.4215 ****
10364 HC1    16.042947   23.617123   -3.671511 H    1677 MOH     0.0372 ****
10365 C1     15.632451   22.660597   -3.348363 C    1677 MOH     0.1166 ****
10366 HC2    16.411297   21.897989   -3.327150 H    1677 MOH     0.0372 ****
10367 HC3    14.847255   22.381763   -4.050520 H    1677 MOH     0.0372 ****
10368 O1     15.036626   22.805117   -2.092541 O    1677 MOH    -0.6497 ****
10369 HO1    15.657277   23.254190   -1.514128 H    1677 MOH     0.4215 ****
10370 HC1     4.342367   24.937806  -17.303822 H    1678 MOH     0.0372 ****
10371 C1      4.901242   25.570182  -16.614393 C    1678 MOH     0.1166 ****
10372 HC2     4.946275   26.570799  -17.045021 H    1678 MOH     0.0372 ****
10373 HC3     5.914492   25.175815  -16.533783 H    1678 MOH     0.0372 ****
10374 O1      4.236135   25.582430  -15.326045 O    1678 MOH    -0.6497 ****
10375 HO1     4.703211   24.964342  -14.760359 H    1678 MOH     0.4215 ****
10376 HC1    12.817292   18.724675  -19.404636 H    1679 MOH     0.0372 ****
10377 C1     11.935100   19.308062  -19.143714 C    1679 MOH     0.1166 ****
10378 HC2    12.239364   20.306637  -18.832587 H    1679 MOH     0.0372 ****
10379 HC3    11.399897   18.818164  -18.330541 H    1679 MOH     0.0372 ****
10380 O1     11.114108   19.363175  -20.311147 O    1679 MOH    -0.6497 ****
10381 HO1    11.023464   18.474419  -20.663994 H    1679 MOH     0.4215 ****
10382 HC1    20.354022    9.732190  -13.953550 H    1680 MOH     0.0372 ****
10383 C1     21.191757    9.960401  -14.613281 C    1680 MOH     0.1166 ****
10384 HC2    21.549137   10.961834  -14.377814 H    1680 MOH     0.0372 ****
10385 HC3    20.841306    9.915494  -15.644242 H    1680 MOH     0.0372 ****
10386 O1     22.272557    9.018572  -14.408927 O    1680 MOH    -0.6497 ****
10387 HO1    23.105673    9.406816  -14.686820 H    1680 MOH     0.4215 ****
10388 HC1    14.547610   20.587512  -14.338216 H    1681 MOH     0.0372 ****
10389 C1     14.235841   21.630995  -14.373572 C    1681 MOH     0.1166 ****
10390 HC2    15.041822   22.288274  -14.045474 H    1681 MOH     0.0372 ****
10391 HC3    13.392910   21.754286  -13.694749 H    1681 MOH     0.0372 ****
10392 O1     13.782621   21.977189  -15.667577 O    1681 MOH    -0.6497 ****
10393 HO1    13.571311   22.912894  -15.637879 H    1681 MOH     0.4215 ****
10394 HC1    10.272909   19.758360  -13.521508 H    1682 MOH     0.0372 ****
10395 C1     11.044249   19.465238  -12.808744 C    1682 MOH     0.1166 ****
10396 HC2    11.942029   19.208858  -13.371601 H    1682 MOH     0.0372 ****
10397 HC3    10.714005   18.576889  -12.269929 H    1682 MOH     0.0372 ****
10398 O1     11.304634   20.542605  -11.900112 O    1682 MOH    -0.6497 ****
10399 HO1    10.638372   20.517702  -11.209269 H    1682 MOH     0.4215 ****
10400 HC1    10.143582   20.369099   -7.638380 H    1683 MOH     0.0372 ****
10401 C1     10.626825   20.218456   -8.603580 C    1683 MOH     0.1166 ****
10402 HC2    11.082354   19.228862   -8.623379 H    1683 MOH     0.0372 ****
10403 HC3    11.387195   20.987595   -8.742173 H    1683 MOH     0.0372 ****
10404 O1      9.595677   20.267854   -9.589994 O    1683 MOH    -0.6497 ****
10405 HO1     9.082990   21.068837   -9.459887 H    1683 MOH     0.4215 ****
10406 HC1     5.843478   21.796744  -13.971935 H    1684 MOH     0.0372 ****
10407 C1      6.431220   22.712444  -13.910417 C    1684 MOH     0.1166 ****
10408 HC2     6.897142   22.923101  -14.873496 H    1684 MOH     0.0372 ****
10409 HC3     7.219881   22.563842  -13.173612 H    1684 MOH     0.0372 ****
10410 O1      5.649488   23.837169  -13.534943 O    1684 MOH    -0.6497 ****
10411 HO1     5.249384   23.673053  -12.677930 H    1684 MOH     0.4215 ****
10412 HC1     0.282094  -24.406185  -17.676326 H    1685 MOH     0.0372 ****
10413 C1     -0.429202  -25.232071  -17.686932 C    1685 MOH     0.1166 ****
10414 HC2    -0.067203  -25.963244  -18.410303 H    1685 MOH     0.0372 ****
10415 HC3    -1.418203  -24.859749  -17.957047 H    1685 MOH     0.0372 ****
10416 O1     -0.492711  -25.805660  -16.402119 O    1685 MOH    -0.6497 ****
10417 HO1    -0.768684  -25.121844  -15.787644 H    1685 MOH     0.4215 ****
10418 HC1    -3.933718  -26.593580  -17.243577 H    1686 MOH     0.0372 ****
10419 C1     -3.496087  -27.497033  -17.668548 C    1686 MOH     0.1166 ****
10420 HC2    -3.252445  -27.301890  -18.712237 H    1686 MOH     0.0372 ****
10421 HC3    -4.201609  -28.323328  -17.575210 H    1686 MOH     0.0372 ****
10422 O1     -2.359861  -27.794646  -16.921136 O    1686 MOH    -0.6497 ****
10423 HO1    -1.732282  -27.068781  -16.969219 H    1686 MOH     0.4215 ****
10424 HC1     7.889723  -19.565340  -21.757746 H    1687 MOH     0.0372 ****
10425 C1      7.950922  -18.785586  -20.999728 C    1687 MOH     0.1166 ****
10426 HC2     8.311188  -19.231393  -20.072004 H    1687 MOH     0.0372 ****
10427 HC3     6.957879  -18.360191  -20.854064 H    1687 MOH     0.0372 ****
10428 O1      8.822143  -17.762924  -21.427527 O    1687 MOH    -0.6497 ****
10429 HO1     9.708953  -18.122999  -21.493995 H    1687 MOH     0.4215 ****
10430 HC1    14.148200  -14.816188  -27.538344 H    1688 MOH     0.0372 ****
10431 C1     14.581790  -14.623087  -26.557587 C    1688 MOH     0.1166 ****
10432 HC2    14.867578  -13.572255  -26.506675 H    1688 MOH     0.0372 ****
10433 HC3    15.469754  -15.242399  -26.431015 H    1688 MOH     0.0372 ****
10434 O1     13.627430  -14.937846  -25.549960 O    1688 MOH    -0.6497 ****
10435 HO1    13.828347  -15.829460  -25.257218 H    1688 MOH     0.4215 ****
10436 HC1     2.331572  -11.714726  -25.686432 H    1689 MOH     0.0372 ****
10437 C1      2.935480  -11.163182  -24.965890 C    1689 MOH     0.1166 ****
10438 HC2     3.747234  -11.798417  -24.612336 H    1689 MOH     0.0372 ****
10439 HC3     2.287116  -10.877408  -24.137161 H    1689 MOH     0.0372 ****
10440 O1      3.440084  -10.039275  -25.621378 O    1689 MOH    -0.6497 ****
10441 HO1     4.252993   -9.777588  -25.182264 H    1689 MOH     0.4215 ****
10442 HC1     0.393407  -17.036242  -21.301662 H    1690 MOH     0.0372 ****
10443 C1     -0.626771  -17.328956  -21.053468 C    1690 MOH     0.1166 ****
10444 HC2    -0.787852  -17.271393  -19.977958 H    1690 MOH     0.0372 ****
10445 HC3    -0.835195  -18.351210  -21.370252 H    1690 MOH     0.0372 ****
10446 O1     -1.513004  -16.436525  -21.654509 O    1690 MOH    -0.6497 ****
10447 HO1    -1.061516  -16.060120  -22.413941 H    1690 MOH     0.4215 ****
10448 HC1     5.804333   -9.773505  -28.628703 H    1691 MOH     0.0372 ****
10449 C1      5.138649   -8.914551  -28.543850 C    1691 MOH     0.1166 ****
10450 HC2     4.096531   -9.234617  -28.550921 H    1691 MOH     0.0372 ****
10451 HC3     5.273749   -8.289931  -29.426319 H    1691 MOH     0.0372 ****
10452 O1      5.364393   -8.117650  -27.340354 O    1691 MOH    -0.6497 ****
10453 HO1     5.291646   -8.684707  -26.570315 H    1691 MOH     0.4215 ****
10454 HC1     5.878812  -20.427561  -19.678852 H    1692 MOH     0.0372 ****
10455 C1      6.178456  -21.474718  -19.693701 C    1692 MOH     0.1166 ****
10456 HC2     6.812387  -21.663328  -20.560614 H    1692 MOH     0.0372 ****
10457 HC3     5.310699  -22.128731  -19.772897 H    1692 MOH     0.0372 ****
10458 O1      6.883401  -21.785803  -18.500105 O    1692 MOH    -0.6497 ****
10459 HO1     7.317568  -22.634143  -18.618899 H    1692 MOH     0.4215 ****
10460 HC1     2.744954   -5.519558  -25.895028 H    1693 MOH     0.0372 ****
10461 C1      2.290580   -5.221537  -26.839723 C    1693 MOH     0.1166 ****
10462 HC2     1.209780   -5.356259  -26.791639 H    1693 MOH     0.0372 ****
10463 HC3     2.713200   -5.846157  -27.627440 H    1693 MOH     0.0372 ****
10464 O1      2.572327   -3.864111  -27.099231 O    1693 MOH    -0.6497 ****
10465 HO1     2.302704   -3.669785  -28.000085 H    1693 MOH     0.4215 ****
10466 HC1     3.785917   -2.605890  -22.771737 H    1694 MOH     0.0372 ****
10467 C1      3.444126   -3.275417  -23.560869 C    1694 MOH     0.1166 ****
10468 HC2     2.945872   -4.151518  -23.145090 H    1694 MOH     0.0372 ****
10469 HC3     4.316502   -3.593442  -24.131504 H    1694 MOH     0.0372 ****
10470 O1      2.662971   -2.545469  -24.482936 O    1694 MOH    -0.6497 ****
10471 HO1     2.690106   -3.032509  -25.309544 H    1694 MOH     0.4215 ****
10472 HC1     9.315778  -11.275451  -25.812296 H    1695 MOH     0.0372 ****
10473 C1      9.798443  -12.241366  -25.959375 C    1695 MOH     0.1166 ****
10474 HC2     9.025371  -12.995401  -26.107160 H    1695 MOH     0.0372 ****
10475 HC3    10.363091  -12.483865  -25.059935 H    1695 MOH     0.0372 ****
10476 O1     10.706615  -12.213605  -27.082260 O    1695 MOH    -0.6497 ****
10477 HO1    11.417910  -11.609398  -26.853158 H    1695 MOH     0.4215 ****
10478 HC1    11.880368   -8.003749  -17.676326 H    1696 MOH     0.0372 ****
10479 C1     11.169072   -8.829635  -17.686932 C    1696 MOH     0.1166 ****
10480 HC2    11.531071   -9.560808  -18.410303 H    1696 MOH     0.0372 ****
10481 HC3    10.180071   -8.457313  -17.957047 H    1696 MOH     0.0372 ****
10482 O1     11.105564   -9.403224  -16.402119 O    1696 MOH    -0.6497 ****
10483 HO1    10.829590   -8.719408  -15.787644 H    1696 MOH     0.4215 ****
10484 HC1     7.810048   -6.474042  -34.684365 H    1697 MOH     0.0372 ****
10485 C1      7.229234   -6.092739  -33.844322 C    1697 MOH     0.1166 ****
10486 HC2     7.526569   -5.085590  -33.552287 H    1697 MOH     0.0372 ****
10487 HC3     7.437080   -6.747977  -32.997916 H    1697 MOH     0.0372 ****
10488 O1      5.849944   -6.136421  -34.129287 O    1697 MOH    -0.6497 ****
10489 HO1     5.444644   -6.811256  -33.579865 H    1697 MOH     0.4215 ****
10490 HC1     7.407635  -20.225070  -25.081148 H    1698 MOH     0.0372 ****
10491 C1      8.161655  -20.978696  -25.308836 C    1698 MOH     0.1166 ****
10492 HC2     7.675526  -21.868269  -25.708352 H    1698 MOH     0.0372 ****
10493 HC3     8.650670  -21.268144  -24.378991 H    1698 MOH     0.0372 ****
10494 O1      9.095807  -20.436542  -26.253531 O    1698 MOH    -0.6497 ****
10495 HO1     9.312314  -19.538804  -25.994023 H    1698 MOH     0.4215 ****
10496 HC1     7.046214   -8.349127  -20.794667 H    1699 MOH     0.0372 ****
10497 C1      7.003490   -7.475067  -21.444498 C    1699 MOH     0.1166 ****
10498 HC2     7.804275   -6.774921  -21.206203 H    1699 MOH     0.0372 ****
10499 HC3     6.064141   -6.959041  -21.249336 H    1699 MOH     0.0372 ****
10500 O1      7.004067   -7.829427  -22.836084 O    1699 MOH    -0.6497 ****
10501 HO1     7.113186   -7.037017  -23.367121 H    1699 MOH     0.4215 ****
10502 HC1    12.154609  -20.195267  -20.266458 H    1700 MOH     0.0372 ****
10503 C1     12.229665  -19.153418  -20.576171 C    1700 MOH     0.1166 ****
10504 HC2    13.268318  -18.928881  -20.819415 H    1700 MOH     0.0372 ****
10505 HC3    11.867666  -18.552068  -19.741078 H    1700 MOH     0.0372 ****
10506 O1     11.341700  -18.995834  -21.652387 O    1700 MOH    -0.6497 ****
10507 HO1    11.708895  -19.516351  -22.370101 H    1700 MOH     0.4215 ****
10508 HC1     1.879506  -24.107919  -19.717743 H    1701 MOH     0.0372 ****
10509 C1      2.871971  -24.087098  -20.168170 C    1701 MOH     0.1166 ****
10510 HC2     3.395051  -23.175888  -19.878256 H    1701 MOH     0.0372 ****
10511 HC3     2.811927  -24.142620  -21.254286 H    1701 MOH     0.0372 ****
10512 O1      3.606938  -25.151810  -19.719864 O    1701 MOH    -0.6497 ****
10513 HO1     3.160069  -25.947894  -20.015435 H    1701 MOH     0.4215 ****
10514 HC1    -0.180479  -11.878433  -26.712444 H    1702 MOH     0.0372 ****
10515 C1     -0.420080  -12.511218  -25.858259 C    1702 MOH     0.1166 ****
10516 HC2    -1.465661  -12.386702  -25.577537 H    1702 MOH     0.0372 ****
10517 HC3     0.212119  -12.203807  -25.024580 H    1702 MOH     0.0372 ****
10518 O1     -0.118126  -13.861295  -26.174335 O    1702 MOH    -0.6497 ****
10519 HO1    -0.580583  -14.134413  -26.969830 H    1702 MOH     0.4215 ****
10520 HC1     9.054815  -23.504936  -24.191608 H    1703 MOH     0.0372 ****
10521 C1      9.305963  -24.025453  -23.267419 C    1703 MOH     0.1166 ****
10522 HC2     8.639123  -24.879100  -23.146504 H    1703 MOH     0.0372 ****
10523 HC3     9.182987  -23.355517  -22.416770 H    1703 MOH     0.0372 ****
10524 O1     10.645993  -24.456155  -23.364293 O    1703 MOH    -0.6497 ****
10525 HO1    10.835941  -25.011781  -22.605567 H    1703 MOH     0.4215 ****
10526 HC1     0.581046  -17.276700  -24.970839 H    1704 MOH     0.0372 ****
10527 C1     -0.428740  -16.877434  -24.878916 C    1704 MOH     0.1166 ****
10528 HC2    -1.041309  -17.618812  -24.365556 H    1704 MOH     0.0372 ****
10529 HC3    -0.829999  -16.685557  -25.874522 H    1704 MOH     0.0372 ****
10530 O1     -0.360613  -15.688615  -24.116654 O    1704 MOH    -0.6497 ****
10531 HO1    -0.026327  -14.995409  -24.690825 H    1704 MOH     0.4215 ****
10532 HC1    -3.675181  -10.040499  -26.546981 H    1705 MOH     0.0372 ****
10533 C1     -2.812619   -9.577546  -27.026399 C    1705 MOH     0.1166 ****
10534 HC2    -2.025691   -9.462828  -26.280401 H    1705 MOH     0.0372 ****
10535 HC3    -3.129585   -8.585503  -27.348840 H    1705 MOH     0.0372 ****
10536 O1     -2.429836  -10.365057  -28.185347 O    1705 MOH    -0.6497 ****
10537 HO1    -3.123811  -10.318925  -28.846492 H    1705 MOH     0.4215 ****
10538 HC1     3.011113  -14.603082  -20.286257 H    1706 MOH     0.0372 ****
10539 C1      3.619063  -13.732289  -20.534452 C    1706 MOH     0.1166 ****
10540 HC2     4.668685  -14.001733  -20.649003 H    1706 MOH     0.0372 ****
10541 HC3     3.562482  -13.010097  -19.719157 H    1706 MOH     0.0372 ****
10542 O1      3.224155  -13.170131  -21.744311 O    1706 MOH    -0.6497 ****
10543 HO1     3.505902  -13.768623  -22.440104 H    1706 MOH     0.4215 ****
10544 HC1     8.591781   -8.353209  -30.974176 H    1707 MOH     0.0372 ****
10545 C1      7.576799   -8.736554  -31.078121 C    1707 MOH     0.1166 ****
10546 HC2     6.855688   -7.919241  -31.056908 H    1707 MOH     0.0372 ****
10547 HC3     7.341817   -9.431393  -30.272019 H    1707 MOH     0.0372 ****
10548 O1      7.449204   -9.448539  -32.260403 O    1707 MOH    -0.6497 ****
10549 HO1     8.169738  -10.081733  -32.292223 H    1707 MOH     0.4215 ****
10550 HC1    11.465830  -16.635342  -23.714311 H    1708 MOH     0.0372 ****
10551 C1     10.843447  -15.740870  -23.723503 C    1708 MOH     0.1166 ****
10552 HC2    11.287429  -14.953768  -23.113977 H    1708 MOH     0.0372 ****
10553 HC3     9.871766  -16.018887  -23.314088 H    1708 MOH     0.0372 ****
10554 O1     10.663891  -15.288123  -25.045086 O    1708 MOH    -0.6497 ****
10555 HO1    11.521256  -15.012555  -25.378133 H    1708 MOH     0.4215 ****
10556 HC1     3.206257  -10.667569  -29.532385 H    1709 MOH     0.0372 ****
10557 C1      3.387545  -11.705744  -29.253078 C    1709 MOH     0.1166 ****
10558 HC2     2.728211  -12.343020  -29.842098 H    1709 MOH     0.0372 ****
10559 HC3     3.162956  -11.860470  -28.197368 H    1709 MOH     0.0372 ****
10560 O1      4.717760  -12.101337  -29.494202 O    1709 MOH    -0.6497 ****
10561 HO1     4.897316  -11.993151  -30.431118 H    1709 MOH     0.4215 ****
10562 HC1     7.094711  -16.455713  -25.873815 H    1710 MOH     0.0372 ****
10563 C1      7.548509  -15.576346  -25.417024 C    1710 MOH     0.1166 ****
10564 HC2     8.385666  -15.259546  -26.039278 H    1710 MOH     0.0372 ****
10565 HC3     7.852195  -15.825378  -24.400204 H    1710 MOH     0.0372 ****
10566 O1      6.598190  -14.578587  -25.452379 O    1710 MOH    -0.6497 ****
10567 HO1     6.270255  -14.523066  -26.353233 H    1710 MOH     0.4215 ****
10568 HC1    -1.072486   -4.983120  -28.203025 H    1711 MOH     0.0372 ****
10569 C1     -1.980080   -5.046806  -27.603398 C    1711 MOH     0.1166 ****
10570 HC2    -2.590917   -5.893513  -27.915939 H    1711 MOH     0.0372 ****
10571 HC3    -2.529140   -4.114776  -27.735627 H    1711 MOH     0.0372 ****
10572 O1     -1.608267   -5.230110  -26.278987 O    1711 MOH    -0.6497 ****
10573 HO1    -1.081146   -6.032726  -26.280401 H    1711 MOH     0.4215 ****
10574 HC1    14.457659  -13.136654  -20.496975 H    1712 MOH     0.0372 ****
10575 C1     14.204780  -12.271985  -19.883206 C    1712 MOH     0.1166 ****
10576 HC2    15.012493  -12.088681  -19.175392 H    1712 MOH     0.0372 ****
10577 HC3    13.286793  -12.504686  -19.344391 H    1712 MOH     0.0372 ****
10578 O1     14.012522  -11.163590  -20.739512 O    1712 MOH    -0.6497 ****
10579 HO1    13.327207  -11.434667  -21.354695 H    1712 MOH     0.4215 ****
10580 HC1    10.717007  -20.396126  -24.031094 H    1713 MOH     0.0372 ****
10581 C1     11.539731  -21.086882  -24.216356 C    1713 MOH     0.1166 ****
10582 HC2    11.815127  -20.965632  -25.263582 H    1713 MOH     0.0372 ****
10583 HC3    11.231426  -22.126690  -24.109583 H    1713 MOH     0.0372 ****
10584 O1     12.629768  -20.776205  -23.331766 O    1713 MOH    -0.6497 ****
10585 HO1    13.240605  -21.516767  -23.319038 H    1713 MOH     0.4215 ****
10586 HC1     8.057731  -17.208931  -16.612837 H    1714 MOH     0.0372 ****
10587 C1      7.166303  -16.582270  -16.644657 C    1714 MOH     0.1166 ****
10588 HC2     6.277761  -17.213014  -16.684962 H    1714 MOH     0.0372 ****
10589 HC3     7.175540  -15.964182  -17.542683 H    1714 MOH     0.0372 ****
10590 O1      7.176695  -15.734747  -15.523186 O    1714 MOH    -0.6497 ****
10591 HO1     7.932446  -15.154626  -15.639858 H    1714 MOH     0.4215 ****
10592 HC1     9.714727  -15.947036  -18.026344 H    1715 MOH     0.0372 ****
10593 C1      9.939316  -14.881099  -17.976139 C    1715 MOH     0.1166 ****
10594 HC2     9.580204  -14.333230  -18.847295 H    1715 MOH     0.0372 ****
10595 HC3    11.025312  -14.834559  -18.048264 H    1715 MOH     0.0372 ****
10596 O1      9.578472  -14.283016  -16.709711 O    1715 MOH    -0.6497 ****
10597 HO1     9.506303  -13.334247  -16.835576 H    1715 MOH     0.4215 ****
10598 HC1     3.956813  -18.040941  -21.576727 H    1716 MOH     0.0372 ****
10599 C1      4.302068  -18.883974  -22.174232 C    1716 MOH     0.1166 ****
10600 HC2     5.042231  -19.415921  -21.575313 H    1716 MOH     0.0372 ****
10601 HC3     4.743741  -18.498179  -23.092764 H    1716 MOH     0.0372 ****
10602 O1      3.249558  -19.801716  -22.507986 O    1716 MOH    -0.6497 ****
10603 HO1     3.528419  -20.314884  -23.269540 H    1716 MOH     0.4215 ****
10604 HC1    11.114224   -9.503653  -27.799267 H    1717 MOH     0.0372 ****
10605 C1     10.621744   -9.067236  -28.668301 C    1717 MOH     0.1166 ****
10606 HC2     9.679508   -8.579787  -28.417985 H    1717 MOH     0.0372 ****
10607 HC3    10.369442   -9.901695  -29.323082 H    1717 MOH     0.0372 ****
10608 O1     11.459479   -8.142145  -29.368336 O    1717 MOH    -0.6497 ****
10609 HO1    10.918502   -7.442407  -29.740275 H    1717 MOH     0.4215 ****
10610 HC1     9.989546  -16.339771  -28.153527 H    1718 MOH     0.0372 ****
10611 C1     10.652921  -17.161574  -27.884119 C    1718 MOH     0.1166 ****
10612 HC2    11.669057  -16.775372  -27.806338 H    1718 MOH     0.0372 ****
10613 HC3    10.639065  -17.944186  -28.642845 H    1718 MOH     0.0372 ****
10614 O1     10.274757  -17.588602  -26.597185 O    1718 MOH    -0.6497 ****
10615 HO1    10.328450  -16.819462  -26.025843 H    1718 MOH     0.4215 ****
10616 HC1    13.769458  -10.140520  -24.050186 H    1719 MOH     0.0372 ****
10617 C1     13.429976  -10.886390  -24.769314 C    1719 MOH     0.1166 ****
10618 HC2    12.923640  -11.723707  -24.287774 H    1719 MOH     0.0372 ****
10619 HC3    14.316786  -11.283207  -25.264289 H    1719 MOH     0.0372 ****
10620 O1     12.588776  -10.265853  -25.723908 O    1719 MOH    -0.6497 ****
10621 HO1    13.118207   -9.580812  -26.139687 H    1719 MOH     0.4215 ****
10622 HC1     7.138013  -12.644307  -29.887353 H    1720 MOH     0.0372 ****
10623 C1      7.794460  -12.368739  -29.062159 C    1720 MOH     0.1166 ****
10624 HC2     7.247709  -12.404665  -28.118879 H    1720 MOH     0.0372 ****
10625 HC3     8.140870  -11.346078  -29.212773 H    1720 MOH     0.0372 ****
10626 O1      8.913365  -13.240758  -28.997105 O    1720 MOH    -0.6497 ****
10627 HO1     9.518428  -12.914159  -28.326768 H    1720 MOH     0.4215 ****
10628 HC1    10.914461   -7.929448  -22.119785 H    1721 MOH     0.0372 ****
10629 C1     10.602691   -8.348310  -21.162362 C    1721 MOH     0.1166 ****
10630 HC2    10.075571   -7.602032  -20.569807 H    1721 MOH     0.0372 ****
10631 HC3    11.495275   -8.681849  -20.634154 H    1721 MOH     0.0372 ****
10632 O1      9.788050   -9.462420  -21.389344 O    1721 MOH    -0.6497 ****
10633 HO1     9.102158   -9.221145  -22.015133 H    1721 MOH     0.4215 ****
10634 HC1     3.594237   -2.535263  -29.839270 H    1722 MOH     0.0372 ****
10635 C1      2.686642   -2.155592  -30.308789 C    1722 MOH     0.1166 ****
10636 HC2     2.817123   -2.175596  -31.391369 H    1722 MOH     0.0372 ****
10637 HC3     2.543459   -1.124765  -29.987055 H    1722 MOH     0.0372 ****
10638 O1      1.546375   -2.948818  -29.934729 O    1722 MOH    -0.6497 ****
10639 HO1     0.773303   -2.443815  -30.197066 H    1722 MOH     0.4215 ****
10640 HC1     5.751795  -11.005190  -23.327523 H    1723 MOH     0.0372 ****
10641 C1      6.333764  -10.762691  -24.217064 C    1723 MOH     0.1166 ****
10642 HC2     6.297391  -11.584494  -24.931949 H    1723 MOH     0.0372 ****
10643 HC3     7.360870  -10.619396  -23.879774 H    1723 MOH     0.0372 ****
10644 O1      5.867842   -9.518350  -24.748808 O    1723 MOH    -0.6497 ****
10645 HO1     6.283534   -8.841066  -24.210700 H    1723 MOH     0.4215 ****
10646 HC1     3.246094  -15.571447  -25.656026 H    1724 MOH     0.0372 ****
10647 C1      3.408907  -15.795576  -24.601730 C    1724 MOH     0.1166 ****
10648 HC2     3.976442  -16.722299  -24.509806 H    1724 MOH     0.0372 ****
10649 HC3     2.425102  -15.913151  -24.147767 H    1724 MOH     0.0372 ****
10650 O1      4.101727  -14.719025  -24.009881 O    1724 MOH    -0.6497 ****
10651 HO1     4.940040  -14.628394  -24.468087 H    1724 MOH     0.4215 ****
10652 HC1     1.181490  -21.637609  -20.896490 H    1725 MOH     0.0372 ****
10653 C1      0.788314  -21.202824  -19.977958 C    1725 MOH     0.1166 ****
10654 HC2     0.604140  -20.138113  -20.119380 H    1725 MOH     0.0372 ****
10655 HC3     1.487485  -21.346936  -19.154179 H    1725 MOH     0.0372 ****
10656 O1     -0.376201  -21.863778  -19.649154 O    1725 MOH    -0.6497 ****
10657 HO1    -0.800554  -21.414297  -18.914470 H    1725 MOH     0.4215 ****
10658 HC1     7.521373  -13.013363  -21.100844 H    1726 MOH     0.0372 ****
10659 C1      7.584882  -13.936413  -21.677136 C    1726 MOH     0.1166 ****
10660 HC2     8.616607  -14.140537  -21.962807 H    1726 MOH     0.0372 ****
10661 HC3     6.967694  -13.824553  -22.568091 H    1726 MOH     0.0372 ****
10662 O1      7.066998  -14.989693  -20.912046 O    1726 MOH    -0.6497 ****
10663 HO1     7.316991  -15.814355  -21.336311 H    1726 MOH     0.4215 ****
10664 HC1    15.082930  -14.339354  -22.544756 H    1727 MOH     0.0372 ****
10665 C1     15.941449  -13.977646  -23.110441 C    1727 MOH     0.1166 ****
10666 HC2    15.593307  -13.458354  -24.002810 H    1727 MOH     0.0372 ****
10667 HC3    16.570761  -14.818229  -23.403891 H    1727 MOH     0.0372 ****
10668 O1     16.690850  -13.088073  -22.314946 O    1727 MOH    -0.6497 ****
10669 HO1    16.858282  -13.506527  -21.467125 H    1727 MOH     0.4215 ****
10670 HC1     0.829884   -8.077233  -27.830379 H    1728 MOH     0.0372 ****
10671 C1      0.459225   -8.474051  -26.885685 C    1728 MOH     0.1166 ****
10672 HC2     1.313703   -8.596934  -26.220297 H    1728 MOH     0.0372 ****
10673 HC3    -0.012471   -9.449764  -27.001650 H    1728 MOH     0.0372 ****
10674 O1     -0.395831   -7.538754  -26.323535 O    1728 MOH    -0.6497 ****
10675 HO1    -0.211079   -7.537121  -25.381669 H    1728 MOH     0.4215 ****
10676 HC1     0.713836  -21.131789  -15.678749 H    1729 MOH     0.0372 ****
10677 C1      1.608152  -21.574330  -15.238929 C    1729 MOH     0.1166 ****
10678 HC2     1.673970  -21.301212  -14.186047 H    1729 MOH     0.0372 ****
10679 HC3     2.498426  -21.204457  -15.748046 H    1729 MOH     0.0372 ****
10680 O1      1.556767  -22.986869  -15.354894 O    1729 MOH    -0.6497 ****
10681 HO1     2.462053  -23.295097  -15.266506 H    1729 MOH     0.4215 ****
10682 HC1     0.118011  -12.752085  -22.092208 H    1730 MOH     0.0372 ****
10683 C1      0.051615  -13.012547  -21.035790 C    1730 MOH     0.1166 ****
10684 HC2     0.159580  -14.090731  -20.912047 H    1730 MOH     0.0372 ****
10685 HC3    -0.932190  -12.697788  -20.687187 H    1730 MOH     0.0372 ****
10686 O1      1.035420  -12.293622  -20.312420 O    1730 MOH    -0.6497 ****
10687 HO1     1.858144  -12.402624  -20.795374 H    1730 MOH     0.4215 ****
10688 HC1     7.664556  -10.191143  -17.243577 H    1731 MOH     0.0372 ****
10689 C1      8.102187  -11.094596  -17.668548 C    1731 MOH     0.1166 ****
10690 HC2     8.345829  -10.899454  -18.712237 H    1731 MOH     0.0372 ****
10691 HC3     7.396665  -11.920891  -17.575210 H    1731 MOH     0.0372 ****
10692 O1      9.238413  -11.392209  -16.921136 O    1731 MOH    -0.6497 ****
10693 HO1     9.865993  -10.666344  -16.969219 H    1731 MOH     0.4215 ****
10694 HC1     4.444673  -17.388969  -17.876437 H    1732 MOH     0.0372 ****
10695 C1      4.034177  -18.345494  -17.553289 C    1732 MOH     0.1166 ****
10696 HC2     4.813023  -19.108102  -17.532076 H    1732 MOH     0.0372 ****
10697 HC3     3.248981  -18.624328  -18.255446 H    1732 MOH     0.0372 ****
10698 O1      3.438352  -18.200974  -16.297468 O    1732 MOH    -0.6497 ****
10699 HO1     4.059003  -17.751901  -15.719054 H    1732 MOH     0.4215 ****
10700 HC1     0.827574   -6.663470  -30.905587 H    1733 MOH     0.0372 ****
10701 C1      1.393955   -6.358508  -30.025239 C    1733 MOH     0.1166 ****
10702 HC2     1.779625   -7.252164  -29.533800 H    1733 MOH     0.0372 ****
10703 HC3     0.739817   -5.834726  -29.328739 H    1733 MOH     0.0372 ****
10704 O1      2.488611   -5.544053  -30.430411 O    1733 MOH    -0.6497 ****
10705 HO1     2.137582   -4.668768  -30.607188 H    1733 MOH     0.4215 ****
10706 HC1     9.645445  -12.405074  -21.045690 H    1734 MOH     0.0372 ****
10707 C1     10.570937  -12.105419  -20.552129 C    1734 MOH     0.1166 ****
10708 HC2    11.014920  -12.959475  -20.040184 H    1734 MOH     0.0372 ****
10709 HC3    10.324986  -11.353426  -19.802596 H    1734 MOH     0.0372 ****
10710 O1     11.453128  -11.606132  -21.578141 O    1734 MOH    -0.6497 ****
10711 HO1    11.262603  -10.667977  -21.653094 H    1734 MOH     0.4215 ****
10712 HC1     8.062350   -8.536105  -25.697745 H    1735 MOH     0.0372 ****
10713 C1      9.008050   -8.193176  -25.277724 C    1735 MOH     0.1166 ****
10714 HC2     8.894312   -7.218687  -24.801841 H    1735 MOH     0.0372 ****
10715 HC3     9.737821   -8.079683  -26.079583 H    1735 MOH     0.0372 ****
10716 O1      9.449723   -9.115409  -24.305452 O    1735 MOH    -0.6497 ****
10717 HO1    10.281107   -9.503653  -24.587588 H    1735 MOH     0.4215 ****
10718 HC1     7.378652   -4.401937  -26.264138 H    1736 MOH     0.0372 ****
10719 C1      6.577867   -4.795897  -25.638348 C    1736 MOH     0.1166 ****
10720 HC2     6.012064   -5.526253  -26.217469 H    1736 MOH     0.0372 ****
10721 HC3     5.905254   -4.019000  -25.277017 H    1736 MOH     0.0372 ****
10722 O1      7.074966   -5.536868  -24.593952 O    1736 MOH    -0.6497 ****
10723 HO1     7.619407   -4.940825  -24.074935 H    1736 MOH     0.4215 ****
10724 HC1    19.487997   -3.162904  -21.757746 H    1737 MOH     0.0372 ****
10725 C1     19.549196   -2.383150  -20.999728 C    1737 MOH     0.1166 ****
10726 HC2    19.909462   -2.828957  -20.072004 H    1737 MOH     0.0372 ****
10727 HC3    18.556153   -1.957755  -20.854064 H    1737 MOH     0.0372 ****
10728 O1     20.420417   -1.360488  -21.427527 O    1737 MOH    -0.6497 ****
10729 HO1    21.307227   -1.720563  -21.493995 H    1737 MOH     0.4215 ****
10730 HC1    13.929846    4.687711  -25.686432 H    1738 MOH     0.0372 ****
10731 C1     14.533754    5.239254  -24.965890 C    1738 MOH     0.1166 ****
10732 HC2    15.345509    4.604020  -24.612336 H    1738 MOH     0.0372 ****
10733 HC3    13.885390    5.525028  -24.137161 H    1738 MOH     0.0372 ****
10734 O1     15.038358    6.363162  -25.621378 O    1738 MOH    -0.6497 ****
10735 HO1    15.851267    6.624849  -25.182264 H    1738 MOH     0.4215 ****
10736 HC1    11.991681   -0.633806  -21.301662 H    1739 MOH     0.0372 ****
10737 C1     10.971503   -0.926520  -21.053468 C    1739 MOH     0.1166 ****
10738 HC2    10.810422   -0.868957  -19.977958 H    1739 MOH     0.0372 ****
10739 HC3    10.763079   -1.948773  -21.370252 H    1739 MOH     0.0372 ****
10740 O1     10.085270   -0.034089  -21.654509 O    1739 MOH    -0.6497 ****
10741 HO1    10.536758    0.342316  -22.413941 H    1739 MOH     0.4215 ****
10742 HC1     6.590569    2.152897  -25.097412 H    1740 MOH     0.0372 ****
10743 C1      7.630954    2.180250  -25.423388 C    1740 MOH     0.1166 ****
10744 HC2     8.215233    1.540525  -24.760829 H    1740 MOH     0.0372 ****
10745 HC3     7.972168    3.213934  -25.369648 H    1740 MOH     0.0372 ****
10746 O1      7.697927    1.698109  -26.746385 O    1740 MOH    -0.6497 ****
10747 HO1     7.103256    0.945299  -26.790225 H    1740 MOH     0.4215 ****
10748 HC1     9.470970   -2.529302  -29.257321 H    1741 MOH     0.0372 ****
10749 C1     10.385492   -2.223116  -29.765023 C    1741 MOH     0.1166 ****
10750 HC2    10.980741   -1.568694  -29.127920 H    1741 MOH     0.0372 ****
10751 HC3    10.110096   -1.676880  -30.667292 H    1741 MOH     0.0372 ****
10752 O1     11.087550   -3.362537  -30.163125 O    1741 MOH    -0.6497 ****
10753 HO1    12.022280   -3.163720  -30.073322 H    1741 MOH     0.4215 ****
10754 HC1     6.416787   -2.866924  -34.113023 H    1742 MOH     0.0372 ****
10755 C1      6.459511   -2.625241  -33.050949 C    1742 MOH     0.1166 ****
10756 HC2     7.496432   -2.687295  -32.720023 H    1742 MOH     0.0372 ****
10757 HC3     5.861953   -3.327020  -32.469000 H    1742 MOH     0.0372 ****
10758 O1      6.025921   -1.331502  -32.781541 O    1742 MOH    -0.6497 ****
10759 HO1     5.256313   -1.140034  -33.322478 H    1742 MOH     0.4215 ****
10760 HC1     3.813514    1.070631  -26.397781 H    1743 MOH     0.0372 ****
10761 C1      3.378769    0.185140  -25.934626 C    1743 MOH     0.1166 ****
10762 HC2     2.966541   -0.489694  -26.684866 H    1743 MOH     0.0372 ****
10763 HC3     2.556623    0.471322  -25.277724 H    1743 MOH     0.0372 ****
10764 O1      4.284055   -0.517455  -25.139131 O    1743 MOH    -0.6497 ****
10765 HO1     3.757511   -1.235155  -24.778506 H    1743 MOH     0.4215 ****
10766 HC1    17.477086   -4.025124  -19.678852 H    1744 MOH     0.0372 ****
10767 C1     17.776730   -5.072281  -19.693701 C    1744 MOH     0.1166 ****
10768 HC2    18.410661   -5.260892  -20.560614 H    1744 MOH     0.0372 ****
10769 HC3    16.908973   -5.726295  -19.772897 H    1744 MOH     0.0372 ****
10770 O1     18.481675   -5.383366  -18.500105 O    1744 MOH    -0.6497 ****
10771 HO1    18.915843   -6.231706  -18.618899 H    1744 MOH     0.4215 ****
10772 HC1    18.150853   -2.909382  -27.102766 H    1745 MOH     0.0372 ****
10773 C1     18.010557   -3.063699  -28.171912 C    1745 MOH     0.1166 ****
10774 HC2    17.814258   -2.109215  -28.661230 H    1745 MOH     0.0372 ****
10775 HC3    17.176286   -3.742616  -28.347981 H    1745 MOH     0.0372 ****
10776 O1     19.186043   -3.618101  -28.723455 O    1745 MOH    -0.6497 ****
10777 HO1    19.832675   -3.718938  -28.021298 H    1745 MOH     0.4215 ****
10778 HC1    23.478642    8.398688  -17.676326 H    1746 MOH     0.0372 ****
10779 C1     22.767346    7.572802  -17.686932 C    1746 MOH     0.1166 ****
10780 HC2    23.129345    6.841629  -18.410303 H    1746 MOH     0.0372 ****
10781 HC3    21.778345    7.945124  -17.957047 H    1746 MOH     0.0372 ****
10782 O1     22.703838    6.999213  -16.402119 O    1746 MOH    -0.6497 ****
10783 HO1    22.427864    7.683029  -15.787644 H    1746 MOH     0.4215 ****
10784 HC1     7.986025   -0.428457  -23.658449 H    1747 MOH     0.0372 ****
10785 C1      7.594581   -1.197597  -24.323130 C    1747 MOH     0.1166 ****
10786 HC2     8.093989   -1.163712  -25.291159 H    1747 MOH     0.0372 ****
10787 HC3     6.523019   -1.035114  -24.447580 H    1747 MOH     0.0372 ****
10788 O1      7.735455   -2.464391  -23.738352 O    1747 MOH    -0.6497 ****
10789 HO1     7.289163   -2.464799  -22.889117 H    1747 MOH     0.4215 ****
10790 HC1    17.821186   -7.397663  -26.500311 H    1748 MOH     0.0372 ****
10791 C1     17.635280   -6.811827  -27.400458 C    1748 MOH     0.1166 ****
10792 HC2    17.653178   -7.435630  -28.294241 H    1748 MOH     0.0372 ****
10793 HC3    18.382948   -6.026357  -27.509353 H    1748 MOH     0.0372 ****
10794 O1     16.392822   -6.223541  -27.271058 O    1748 MOH    -0.6497 ****
10795 HO1    16.094332   -6.112906  -28.176862 H    1748 MOH     0.4215 ****
10796 HC1    19.005909   -3.822633  -25.081148 H    1749 MOH     0.0372 ****
10797 C1     19.759929   -4.576259  -25.308836 C    1749 MOH     0.1166 ****
10798 HC2    19.273800   -5.465832  -25.708352 H    1749 MOH     0.0372 ****
10799 HC3    20.248944   -4.865707  -24.378991 H    1749 MOH     0.0372 ****
10800 O1     20.694081   -4.034106  -26.253531 O    1749 MOH    -0.6497 ****
10801 HO1    20.910588   -3.136368  -25.994023 H    1749 MOH     0.4215 ****
10802 HC1    14.942518  -10.452177  -27.815530 H    1750 MOH     0.0372 ****
10803 C1     14.535486   -9.451560  -27.960487 C    1750 MOH     0.1166 ****
10804 HC2    13.489905   -9.497284  -28.265957 H    1750 MOH     0.0372 ****
10805 HC3    15.092052   -8.993914  -28.777195 H    1750 MOH     0.0372 ****
10806 O1     14.690216   -8.627715  -26.803660 O    1750 MOH    -0.6497 ****
10807 HO1    14.973118   -7.747532  -27.063875 H    1750 MOH     0.4215 ****
10808 HC1    14.348425   -6.046770  -25.593093 H    1751 MOH     0.0372 ****
10809 C1     14.436759   -5.060850  -25.137010 C    1751 MOH     0.1166 ****
10810 HC2    13.835738   -5.029007  -24.229084 H    1751 MOH     0.0372 ****
10811 HC3    14.084576   -4.325595  -25.860380 H    1751 MOH     0.0372 ****
10812 O1     15.776789   -4.857134  -24.829418 O    1751 MOH    -0.6497 ****
10813 HO1    16.261763   -5.323762  -25.513190 H    1751 MOH     0.4215 ****
10814 HC1    16.311993  -10.884104  -24.779213 H    1752 MOH     0.0372 ****
10815 C1     17.388174  -10.875939  -24.948919 C    1752 MOH     0.1166 ****
10816 HC2    17.808485  -10.015760  -24.429196 H    1752 MOH     0.0372 ****
10817 HC3    17.591978  -10.815518  -26.018064 H    1752 MOH     0.0372 ****
10818 O1     17.981690  -12.020667  -24.448287 O    1752 MOH    -0.6497 ****
10819 HO1    17.519810  -12.281946  -23.649257 H    1752 MOH     0.4215 ****
10820 HC1    12.127358    0.769344  -27.909575 H    1753 MOH     0.0372 ****
10821 C1     13.159083    0.485611  -28.115343 C    1753 MOH     0.1166 ****
10822 HC2    13.429860   -0.340275  -27.458441 H    1753 MOH     0.0372 ****
10823 HC3    13.807447    1.336401  -27.904625 H    1753 MOH     0.0372 ****
10824 O1     13.297070    0.166361  -29.477231 O    1753 MOH    -0.6497 ****
10825 HO1    13.000312    0.959179  -29.929779 H    1753 MOH     0.4215 ****
10826 HC1    23.752883   -3.792831  -20.266458 H    1754 MOH     0.0372 ****
10827 C1     23.827939   -2.750981  -20.576171 C    1754 MOH     0.1166 ****
10828 HC2    24.866592   -2.526445  -20.819415 H    1754 MOH     0.0372 ****
10829 HC3    23.465940   -2.149632  -19.741078 H    1754 MOH     0.0372 ****
10830 O1     22.939974   -2.593397  -21.652387 O    1754 MOH    -0.6497 ****
10831 HO1    23.307169   -3.113914  -22.370101 H    1754 MOH     0.4215 ****
10832 HC1    13.477780   -7.705482  -19.717743 H    1755 MOH     0.0372 ****
10833 C1     14.470245   -7.684662  -20.168170 C    1755 MOH     0.1166 ****
10834 HC2    14.993325   -6.773452  -19.878256 H    1755 MOH     0.0372 ****
10835 HC3    14.410201   -7.740184  -21.254286 H    1755 MOH     0.0372 ****
10836 O1     15.205212   -8.749373  -19.719864 O    1755 MOH    -0.6497 ****
10837 HO1    14.758343   -9.545458  -20.015435 H    1755 MOH     0.4215 ****
10838 HC1    11.417795    4.524003  -26.712444 H    1756 MOH     0.0372 ****
10839 C1     11.178194    3.891218  -25.858259 C    1756 MOH     0.1166 ****
10840 HC2    10.132613    4.015734  -25.577537 H    1756 MOH     0.0372 ****
10841 HC3    11.810393    4.198629  -25.024580 H    1756 MOH     0.0372 ****
10842 O1     11.480148    2.541141  -26.174335 O    1756 MOH    -0.6497 ****
10843 HO1    11.017691    2.268023  -26.969830 H    1756 MOH     0.4215 ****
10844 HC1    20.653090   -7.102500  -24.191608 H    1757 MOH     0.0372 ****
10845 C1     20.904237   -7.623016  -23.267419 C    1757 MOH     0.1166 ****
10846 HC2    20.237397   -8.476664  -23.146504 H    1757 MOH     0.0372 ****
10847 HC3    20.781261   -6.953081  -22.416770 H    1757 MOH     0.0372 ****
10848 O1     22.244267   -8.053718  -23.364293 O    1757 MOH    -0.6497 ****
10849 HO1    22.434215   -8.609344  -22.605567 H    1757 MOH     0.4215 ****
10850 HC1    12.179320   -0.874264  -24.970839 H    1758 MOH     0.0372 ****
10851 C1     11.169534   -0.474997  -24.878916 C    1758 MOH     0.1166 ****
10852 HC2    10.556965   -1.216376  -24.365556 H    1758 MOH     0.0372 ****
10853 HC3    10.768276   -0.283120  -25.874522 H    1758 MOH     0.0372 ****
10854 O1     11.237661    0.713822  -24.116654 O    1758 MOH    -0.6497 ****
10855 HO1    11.571947    1.407028  -24.690825 H    1758 MOH     0.4215 ****
10856 HC1     7.923093    6.361937  -26.546981 H    1759 MOH     0.0372 ****
10857 C1      8.785655    6.824891  -27.026399 C    1759 MOH     0.1166 ****
10858 HC2     9.572583    6.939608  -26.280401 H    1759 MOH     0.0372 ****
10859 HC3     8.468689    7.816934  -27.348840 H    1759 MOH     0.0372 ****
10860 O1      9.168438    6.037380  -28.185347 O    1759 MOH    -0.6497 ****
10861 HO1     8.474463    6.083512  -28.846492 H    1759 MOH     0.4215 ****
10862 HC1    14.609387    1.799354  -20.286257 H    1760 MOH     0.0372 ****
10863 C1     15.217337    2.670148  -20.534452 C    1760 MOH     0.1166 ****
10864 HC2    16.266960    2.400704  -20.649003 H    1760 MOH     0.0372 ****
10865 HC3    15.160756    3.392339  -19.719157 H    1760 MOH     0.0372 ****
10866 O1     14.822429    3.232306  -21.744311 O    1760 MOH    -0.6497 ****
10867 HO1    15.104176    2.633814  -22.440104 H    1760 MOH     0.4215 ****
10868 HC1    13.668883   -5.944708  -30.084636 H    1761 MOH     0.0372 ****
10869 C1     14.525671   -6.202721  -30.708304 C    1761 MOH     0.1166 ****
10870 HC2    14.711578   -5.409494  -31.431674 H    1761 MOH     0.0372 ****
10871 HC3    14.279720   -7.106582  -31.265504 H    1761 MOH     0.0372 ****
10872 O1     15.689032   -6.393373  -29.907152 O    1761 MOH    -0.6497 ****
10873 HO1    16.385316   -6.741200  -30.468595 H    1761 MOH     0.4215 ****
10874 HC1    23.064104   -0.232906  -23.714311 H    1762 MOH     0.0372 ****
10875 C1     22.441721    0.661566  -23.723503 C    1762 MOH     0.1166 ****
10876 HC2    22.885703    1.448669  -23.113977 H    1762 MOH     0.0372 ****
10877 HC3    21.470040    0.383549  -23.314088 H    1762 MOH     0.0372 ****
10878 O1     22.262165    1.114314  -25.045086 O    1762 MOH    -0.6497 ****
10879 HO1    23.119530    1.389881  -25.378133 H    1762 MOH     0.4215 ****
10880 HC1    18.692985   -0.053277  -25.873815 H    1763 MOH     0.0372 ****
10881 C1     19.146783    0.826090  -25.417024 C    1763 MOH     0.1166 ****
10882 HC2    19.983941    1.142891  -26.039278 H    1763 MOH     0.0372 ****
10883 HC3    19.450469    0.577059  -24.400204 H    1763 MOH     0.0372 ****
10884 O1     18.196464    1.823849  -25.452379 O    1763 MOH    -0.6497 ****
10885 HO1    17.868529    1.879371  -26.353233 H    1763 MOH     0.4215 ****
10886 HC1    26.055933    3.265782  -20.496975 H    1764 MOH     0.0372 ****
10887 C1     25.803054    4.130452  -19.883206 C    1764 MOH     0.1166 ****
10888 HC2    26.610767    4.313755  -19.175392 H    1764 MOH     0.0372 ****
10889 HC3    24.885067    3.897750  -19.344391 H    1764 MOH     0.0372 ****
10890 O1     25.610796    5.238846  -20.739512 O    1764 MOH    -0.6497 ****
10891 HO1    24.925481    4.967769  -21.354695 H    1764 MOH     0.4215 ****
10892 HC1    22.315281   -3.993689  -24.031094 H    1765 MOH     0.0372 ****
10893 C1     23.138005   -4.684445  -24.216356 C    1765 MOH     0.1166 ****
10894 HC2    23.413401   -4.563195  -25.263582 H    1765 MOH     0.0372 ****
10895 HC3    22.829700   -5.724254  -24.109583 H    1765 MOH     0.0372 ****
10896 O1     24.228042   -4.373768  -23.331766 O    1765 MOH    -0.6497 ****
10897 HO1    24.838879   -5.114331  -23.319038 H    1765 MOH     0.4215 ****
10898 HC1    19.656006   -0.806495  -16.612837 H    1766 MOH     0.0372 ****
10899 C1     18.764577   -0.179833  -16.644657 C    1766 MOH     0.1166 ****
10900 HC2    17.876035   -0.810577  -16.684962 H    1766 MOH     0.0372 ****
10901 HC3    18.773814    0.438254  -17.542683 H    1766 MOH     0.0372 ****
10902 O1     18.774969    0.667690  -15.523186 O    1766 MOH    -0.6497 ****
10903 HO1    19.530721    1.247811  -15.639858 H    1766 MOH     0.4215 ****
10904 HC1    21.313001    0.455401  -18.026344 H    1767 MOH     0.0372 ****
10905 C1     21.537590    1.521337  -17.976139 C    1767 MOH     0.1166 ****
10906 HC2    21.178478    2.069206  -18.847295 H    1767 MOH     0.0372 ****
10907 HC3    22.623586    1.567877  -18.048264 H    1767 MOH     0.0372 ****
10908 O1     21.176746    2.119421  -16.709711 O    1767 MOH    -0.6497 ****
10909 HO1    21.104577    3.068190  -16.835576 H    1767 MOH     0.4215 ****
10910 HC1    15.555087   -1.638505  -21.576727 H    1768 MOH     0.0372 ****
10911 C1     15.900342   -2.481537  -22.174232 C    1768 MOH     0.1166 ****
10912 HC2    16.640505   -3.013485  -21.575313 H    1768 MOH     0.0372 ****
10913 HC3    16.342015   -2.095743  -23.092764 H    1768 MOH     0.0372 ****
10914 O1     14.847833   -3.399280  -22.507986 O    1768 MOH    -0.6497 ****
10915 HO1    15.126693   -3.912448  -23.269540 H    1768 MOH     0.4215 ****
10916 HC1     8.074359   -6.309682  -29.834320 H    1769 MOH     0.0372 ****
10917 C1      8.718105   -5.525437  -30.231007 C    1769 MOH     0.1166 ****
10918 HC2     8.752168   -4.724045  -29.493494 H    1769 MOH     0.0372 ****
10919 HC3     8.319156   -5.085345  -31.146003 H    1769 MOH     0.0372 ****
10920 O1     10.029845   -5.990023  -30.461524 O    1769 MOH    -0.6497 ****
10921 HO1    10.472095   -5.202921  -30.786793 H    1769 MOH     0.4215 ****
10922 HC1    17.350069    5.397246  -23.327523 H    1770 MOH     0.0372 ****
10923 C1     17.932038    5.639746  -24.217064 C    1770 MOH     0.1166 ****
10924 HC2    17.895665    4.817942  -24.931949 H    1770 MOH     0.0372 ****
10925 HC3    18.959144    5.783041  -23.879774 H    1770 MOH     0.0372 ****
10926 O1     17.466116    6.884087  -24.748808 O    1770 MOH    -0.6497 ****
10927 HO1    17.881808    7.561371  -24.210700 H    1770 MOH     0.4215 ****
10928 HC1    14.844368    0.830989  -25.656026 H    1771 MOH     0.0372 ****
10929 C1     15.007181    0.606861  -24.601730 C    1771 MOH     0.1166 ****
10930 HC2    15.574717   -0.319863  -24.509806 H    1771 MOH     0.0372 ****
10931 HC3    14.023376    0.489285  -24.147767 H    1771 MOH     0.0372 ****
10932 O1     15.700002    1.683412  -24.009881 O    1771 MOH    -0.6497 ****
10933 HO1    16.538314    1.774043  -24.468087 H    1771 MOH     0.4215 ****
10934 HC1    12.779764   -5.235172  -20.896490 H    1772 MOH     0.0372 ****
10935 C1     12.386588   -4.800388  -19.977958 C    1772 MOH     0.1166 ****
10936 HC2    12.202414   -3.735676  -20.119380 H    1772 MOH     0.0372 ****
10937 HC3    13.085760   -4.944499  -19.154179 H    1772 MOH     0.0372 ****
10938 O1     11.222073   -5.461342  -19.649154 O    1772 MOH    -0.6497 ****
10939 HO1    10.797720   -5.011860  -18.914470 H    1772 MOH     0.4215 ****
10940 HC1    19.119647    3.389073  -21.100844 H    1773 MOH     0.0372 ****
10941 C1     19.183156    2.466024  -21.677136 C    1773 MOH     0.1166 ****
10942 HC2    20.214881    2.261900  -21.962807 H    1773 MOH     0.0372 ****
10943 HC3    18.565968    2.577884  -22.568091 H    1773 MOH     0.0372 ****
10944 O1     18.665273    1.412743  -20.912046 O    1773 MOH    -0.6497 ****
10945 HO1    18.915265    0.588082  -21.336311 H    1773 MOH     0.4215 ****
10946 HC1     9.546602    2.247611  -29.907152 H    1774 MOH     0.0372 ****
10947 C1      9.813916    1.242912  -29.578347 C    1774 MOH     0.1166 ****
10948 HC2    10.758461    0.953464  -30.038674 H    1774 MOH     0.0372 ****
10949 HC3     9.051236    0.529294  -29.888060 H    1774 MOH     0.0372 ****
10950 O1      9.981347    1.250668  -28.149284 O    1774 MOH    -0.6497 ****
10951 HO1     9.152850    1.438463  -27.702393 H    1774 MOH     0.4215 ****
10952 HC1    11.716285    3.650352  -22.092208 H    1775 MOH     0.0372 ****
10953 C1     11.649889    3.389890  -21.035790 C    1775 MOH     0.1166 ****
10954 HC2    11.757854    2.311706  -20.912047 H    1775 MOH     0.0372 ****
10955 HC3    10.666085    3.704649  -20.687187 H    1775 MOH     0.0372 ****
10956 O1     12.633694    4.108815  -20.312420 O    1775 MOH    -0.6497 ****
10957 HO1    13.456418    3.999812  -20.795374 H    1775 MOH     0.4215 ****
10958 HC1    19.262830    6.211293  -17.243577 H    1776 MOH     0.0372 ****
10959 C1     19.700462    5.307840  -17.668548 C    1776 MOH     0.1166 ****
10960 HC2    19.944103    5.502983  -18.712237 H    1776 MOH     0.0372 ****
10961 HC3    18.994939    4.481545  -17.575210 H    1776 MOH     0.0372 ****
10962 O1     20.836687    5.010227  -16.921136 O    1776 MOH    -0.6497 ****
10963 HO1    21.464267    5.736092  -16.969219 H    1776 MOH     0.4215 ****
10964 HC1    16.042948   -0.986532  -17.876437 H    1777 MOH     0.0372 ****
10965 C1     15.632452   -1.943058  -17.553289 C    1777 MOH     0.1166 ****
10966 HC2    16.411297   -2.705666  -17.532076 H    1777 MOH     0.0372 ****
10967 HC3    14.847255   -2.221891  -18.255446 H    1777 MOH     0.0372 ****
10968 O1     15.036626   -1.798538  -16.297468 O    1777 MOH    -0.6497 ****
10969 HO1    15.657278   -1.349465  -15.719054 H    1777 MOH     0.4215 ****
10970 HC1     4.342367    0.334151  -31.508749 H    1778 MOH     0.0372 ****
10971 C1      4.901242    0.966528  -30.819320 C    1778 MOH     0.1166 ****
10972 HC2     4.946276    1.967144  -31.249948 H    1778 MOH     0.0372 ****
10973 HC3     5.914492    0.572160  -30.738710 H    1778 MOH     0.0372 ****
10974 O1      4.236135    0.978775  -29.530971 O    1778 MOH    -0.6497 ****
10975 HO1     4.703211    0.360687  -28.965286 H    1778 MOH     0.4215 ****
10976 HC1    12.817292   -5.878980  -33.609563 H    1779 MOH     0.0372 ****
10977 C1     11.935101   -5.295593  -33.348641 C    1779 MOH     0.1166 ****
10978 HC2    12.239364   -4.297018  -33.037514 H    1779 MOH     0.0372 ****
10979 HC3    11.399897   -5.785491  -32.535468 H    1779 MOH     0.0372 ****
10980 O1     11.114108   -5.240479  -34.516074 O    1779 MOH    -0.6497 ****
10981 HO1    11.023464   -6.129236  -34.868920 H    1779 MOH     0.4215 ****
10982 HC1    14.547610   -4.016143  -28.543143 H    1780 MOH     0.0372 ****
10983 C1     14.235841   -2.972660  -28.578498 C    1780 MOH     0.1166 ****
10984 HC2    15.041822   -2.315380  -28.250401 H    1780 MOH     0.0372 ****
10985 HC3    13.392910   -2.849369  -27.899676 H    1780 MOH     0.0372 ****
10986 O1     13.782621   -2.626466  -29.872504 O    1780 MOH    -0.6497 ****
10987 HO1    13.571311   -1.690760  -29.842805 H    1780 MOH     0.4215 ****
10988 HC1    21.243719    3.997363  -21.045690 H    1781 MOH     0.0372 ****
10989 C1     22.169211    4.297017  -20.552129 C    1781 MOH     0.1166 ****
10990 HC2    22.613194    3.442962  -20.040184 H    1781 MOH     0.0372 ****
10991 HC3    21.923260    5.049011  -19.802596 H    1781 MOH     0.0372 ****
10992 O1     23.051403    4.796305  -21.578141 O    1781 MOH    -0.6497 ****
10993 HO1    22.860877    5.734459  -21.653094 H    1781 MOH     0.4215 ****
10994 HC1    10.272909   -4.845295  -27.726435 H    1782 MOH     0.0372 ****
10995 C1     11.044249   -5.138417  -27.013671 C    1782 MOH     0.1166 ****
10996 HC2    11.942029   -5.394797  -27.576528 H    1782 MOH     0.0372 ****
10997 HC3    10.714005   -6.026766  -26.474856 H    1782 MOH     0.0372 ****
10998 O1     11.304634   -4.061050  -26.105039 O    1782 MOH    -0.6497 ****
10999 HO1    10.638372   -4.085953  -25.414195 H    1782 MOH     0.4215 ****
11000 HC1    10.143583   -4.234556  -21.843306 H    1783 MOH     0.0372 ****
11001 C1     10.626825   -4.385199  -22.808507 C    1783 MOH     0.1166 ****
11002 HC2    11.082354   -5.374793  -22.828306 H    1783 MOH     0.0372 ****
11003 HC3    11.387195   -3.616059  -22.947100 H    1783 MOH     0.0372 ****
11004 O1      9.595677   -4.335801  -23.794921 O    1783 MOH    -0.6497 ****
11005 HO1     9.082990   -3.534818  -23.664813 H    1783 MOH     0.4215 ****
11006 HC1     5.843478   -2.806911  -28.176862 H    1784 MOH     0.0372 ****
11007 C1      6.431220   -1.891210  -28.115343 C    1784 MOH     0.1166 ****
11008 HC2     6.897142   -1.680554  -29.078423 H    1784 MOH     0.0372 ****
11009 HC3     7.219881   -2.039813  -27.378538 H    1784 MOH     0.0372 ****
11010 O1      5.649488   -0.766486  -27.739870 O    1784 MOH    -0.6497 ****
11011 HO1     5.249384   -0.930602  -26.882856 H    1784 MOH     0.4215 ****
11012 HC1    23.910384   11.673084  -15.678749 H    1785 MOH     0.0372 ****
11013 C1     24.804700   11.230543  -15.238929 C    1785 MOH     0.1166 ****
11014 HC2    24.870518   11.503661  -14.186047 H    1785 MOH     0.0372 ****
11015 HC3    25.694974   11.600416  -15.748046 H    1785 MOH     0.0372 ****
11016 O1     24.753316    9.818004  -15.354894 O    1785 MOH    -0.6497 ****
11017 HO1    25.658601    9.509776  -15.266506 H    1785 MOH     0.4215 ****
11018 HC1   -28.496162   18.407140    0.037830 H    1786 MOH     0.0372 ****
11019 C1    -28.413601   19.346927    0.583716 C    1786 MOH     0.1166 ****
11020 HC2   -29.240366   20.002574    0.310773 H    1786 MOH     0.0372 ****
11021 HC3   -27.456354   19.809064    0.339057 H    1786 MOH     0.0372 ****
11022 O1    -28.454593   18.988894    1.925098 O    1786 MOH    -0.6497 ****
11023 HO1   -28.230581   19.731905    2.489369 H    1786 MOH     0.4215 ****
11024 HC1   -25.993464   19.809309    1.751150 H    1787 MOH     0.0372 ****
11025 C1    -25.412072   20.566610    2.277944 C    1787 MOH     0.1166 ****
11026 HC2   -24.358408   20.322477    2.140765 H    1787 MOH     0.0372 ****
11027 HC3   -25.641858   20.577224    3.342847 H    1787 MOH     0.0372 ****
11028 O1    -25.540244   21.826872    1.725694 O    1787 MOH    -0.6497 ****
11029 HO1   -24.741768   22.303298    1.966817 H    1787 MOH     0.4215 ****
11030 HC1   -25.772916   19.486793   -2.911513 H    1788 MOH     0.0372 ****
11031 C1    -25.805825   20.571917   -3.010508 C    1788 MOH     0.1166 ****
11032 HC2   -25.360688   21.040994   -2.132988 H    1788 MOH     0.0372 ****
11033 HC3   -26.843323   20.897699   -3.085461 H    1788 MOH     0.0372 ****
11034 O1    -25.119933   20.949139   -4.175819 O    1788 MOH    -0.6497 ****
11035 HO1   -25.018319   21.902398   -4.135514 H    1788 MOH     0.4215 ****
11036 HC1   -26.039074   17.933408    0.251376 H    1789 MOH     0.0372 ****
11037 C1    -25.201339   18.161619   -0.408355 C    1789 MOH     0.1166 ****
11038 HC2   -24.843959   19.163052   -0.172888 H    1789 MOH     0.0372 ****
11039 HC3   -25.551791   18.116712   -1.439316 H    1789 MOH     0.0372 ****
11040 O1    -24.120540   17.219790   -0.204001 O    1789 MOH    -0.6497 ****
11041 HO1   -23.287423   17.608035   -0.481894 H    1789 MOH     0.4215 ****
11042 HC1   -28.496162   -6.196515  -14.167097 H    1790 MOH     0.0372 ****
11043 C1    -28.413601   -5.256728  -13.621210 C    1790 MOH     0.1166 ****
11044 HC2   -29.240366   -4.601081  -13.894154 H    1790 MOH     0.0372 ****
11045 HC3   -27.456354   -4.794590  -13.865869 H    1790 MOH     0.0372 ****
11046 O1    -28.454592   -5.614761  -12.279829 O    1790 MOH    -0.6497 ****
11047 HO1   -28.230581   -4.871749  -11.715558 H    1790 MOH     0.4215 ****
11048 HC1   -26.905100    5.038315   -7.552820 H    1791 MOH     0.0372 ****
11049 C1    -26.843901    5.818069   -6.794801 C    1791 MOH     0.1166 ****
11050 HC2   -26.483634    5.372262   -5.867077 H    1791 MOH     0.0372 ****
11051 HC3   -27.836943    6.243464   -6.649138 H    1791 MOH     0.0372 ****
11052 O1    -25.972679    6.840731   -7.222601 O    1791 MOH    -0.6497 ****
11053 HO1   -25.085869    6.480656   -7.289069 H    1791 MOH     0.4215 ****
11054 HC1   -20.646623    9.787467  -13.333418 H    1792 MOH     0.0372 ****
11055 C1    -20.213033    9.980568  -12.352661 C    1792 MOH     0.1166 ****
11056 HC2   -19.927244   11.031399  -12.301749 H    1792 MOH     0.0372 ****
11057 HC3   -19.325068    9.361256  -12.226089 H    1792 MOH     0.0372 ****
11058 O1    -21.167393    9.665809  -11.345034 O    1792 MOH    -0.6497 ****
11059 HO1   -20.966475    8.774195  -11.052291 H    1792 MOH     0.4215 ****
11060 HC1   -27.283841   -1.066222  -20.965928 H    1793 MOH     0.0372 ****
11061 C1    -27.470903   -2.052142  -20.540957 C    1793 MOH     0.1166 ****
11062 HC2   -27.862924   -1.957428  -19.528380 H    1793 MOH     0.0372 ****
11063 HC3   -26.513656   -2.568576  -20.472368 H    1793 MOH     0.0372 ****
11064 O1    -28.312102   -2.855983  -21.390193 O    1793 MOH    -0.6497 ****
11065 HO1   -29.028017   -3.202177  -20.852791 H    1793 MOH     0.4215 ****
11066 HC1   -24.653434   -0.594287  -14.329024 H    1794 MOH     0.0372 ****
11067 C1    -25.502139   -0.159503  -13.800815 C    1794 MOH     0.1166 ****
11068 HC2   -25.638393    0.867650  -14.138812 H    1794 MOH     0.0372 ****
11069 HC3   -25.337594   -0.171750  -12.723185 H    1794 MOH     0.0372 ****
11070 O1    -26.667809   -0.857607  -14.134570 O    1794 MOH    -0.6497 ****
11071 HO1   -26.640673   -1.658182  -13.604947 H    1794 MOH     0.4215 ****
11072 HC1   -16.576881    8.176111  -17.948704 H    1795 MOH     0.0372 ****
11073 C1    -16.771448    8.917490  -17.173715 C    1795 MOH     0.1166 ****
11074 HC2   -17.835504    8.959539  -16.941077 H    1795 MOH     0.0372 ****
11075 HC3   -16.470071    9.905859  -17.520904 H    1795 MOH     0.0372 ****
11076 O1    -16.101722    8.587217  -15.962441 O    1795 MOH    -0.6497 ****
11077 HO1   -16.319383    7.692745  -15.690205 H    1795 MOH     0.4215 ****
11078 HC1   -21.693936   12.540285  -16.419939 H    1796 MOH     0.0372 ****
11079 C1    -21.645439   11.452712  -16.470851 C    1796 MOH     0.1166 ****
11080 HC2   -22.023603   11.097944  -17.428980 H    1796 MOH     0.0372 ****
11081 HC3   -22.252234   11.006088  -15.683134 H    1796 MOH     0.0372 ****
11082 O1    -20.308873   11.018335  -16.397312 O    1796 MOH    -0.6497 ****
11083 HO1   -20.341205   10.058952  -16.376098 H    1796 MOH     0.4215 ****
11084 HC1   -22.497030    6.958714  -23.498078 H    1797 MOH     0.0372 ****
11085 C1    -22.298422    7.919323  -23.023609 C    1797 MOH     0.1166 ****
11086 HC2   -21.233788    8.136511  -23.107048 H    1797 MOH     0.0372 ****
11087 HC3   -22.527630    7.884213  -21.958706 H    1797 MOH     0.0372 ****
11088 O1    -23.091701    8.915040  -23.674855 O    1797 MOH    -0.6497 ****
11089 HO1   -23.044358    9.691120  -23.111290 H    1797 MOH     0.4215 ****
11090 HC1   -23.655772    1.491453  -18.486105 H    1798 MOH     0.0372 ****
11091 C1    -23.608430    2.214869  -17.671518 C    1798 MOH     0.1166 ****
11092 HC2   -24.401709    2.942368  -17.842638 H    1798 MOH     0.0372 ****
11093 HC3   -22.647719    2.728446  -17.718187 H    1798 MOH     0.0372 ****
11094 O1    -23.793759    1.573103  -16.377513 O    1798 MOH    -0.6497 ****
11095 HO1   -23.985439    2.248754  -15.722025 H    1798 MOH     0.4215 ****
11096 HC1   -16.897888   10.205921  -14.167097 H    1799 MOH     0.0372 ****
11097 C1    -16.815326   11.145709  -13.621210 C    1799 MOH     0.1166 ****
11098 HC2   -17.642092   11.801356  -13.894154 H    1799 MOH     0.0372 ****
11099 HC3   -15.858080   11.607846  -13.865869 H    1799 MOH     0.0372 ****
11100 O1    -16.856318   10.787675  -12.279829 O    1799 MOH    -0.6497 ****
11101 HO1   -16.632306   11.530687  -11.715558 H    1799 MOH     0.4215 ****
11102 HC1   -22.110206   -1.171550  -17.881529 H    1800 MOH     0.0372 ****
11103 C1    -22.790324   -1.740240  -17.247254 C    1800 MOH     0.1166 ****
11104 HC2   -22.435831   -1.703090  -16.216999 H    1800 MOH     0.0372 ****
11105 HC3   -22.845173   -2.776783  -17.578887 H    1800 MOH     0.0372 ****
11106 O1    -24.022967   -1.117253  -17.329278 O    1800 MOH    -0.6497 ****
11107 HO1   -23.920776   -0.224414  -16.993403 H    1800 MOH     0.4215 ****
11108 HC1   -28.242243    5.291837  -12.897840 H    1801 MOH     0.0372 ****
11109 C1    -28.382539    5.137519  -13.966986 C    1801 MOH     0.1166 ****
11110 HC2   -28.578838    6.092003  -14.456303 H    1801 MOH     0.0372 ****
11111 HC3   -29.216810    4.458602  -14.143055 H    1801 MOH     0.0372 ****
11112 O1    -27.207054    4.583118  -14.518529 O    1801 MOH    -0.6497 ****
11113 HO1   -26.560422    4.482280  -13.816372 H    1801 MOH     0.4215 ****
11114 HC1   -25.479045   13.328204  -11.607370 H    1802 MOH     0.0372 ****
11115 C1    -24.996380   12.362289  -11.754448 C    1802 MOH     0.1166 ****
11116 HC2   -25.769452   11.608254  -11.902234 H    1802 MOH     0.0372 ****
11117 HC3   -24.431731   12.119789  -10.855009 H    1802 MOH     0.0372 ****
11118 O1    -24.088208   12.390050  -12.877334 O    1802 MOH    -0.6497 ****
11119 HO1   -23.376912   12.994257  -12.648231 H    1802 MOH     0.4215 ****
11120 HC1   -21.780539   -0.797187  -12.652474 H    1803 MOH     0.0372 ****
11121 C1    -21.946816   -0.710230  -11.578379 C    1803 MOH     0.1166 ****
11122 HC2   -21.874647    0.345909  -11.318871 H    1803 MOH     0.0372 ****
11123 HC3   -21.159887   -1.264223  -11.065726 H    1803 MOH     0.0372 ****
11124 O1    -23.272412   -1.229113  -11.344326 O    1803 MOH    -0.6497 ****
11125 HO1   -23.583604   -0.880469  -10.505698 H    1803 MOH     0.4215 ****
11126 HC1   -22.914455   16.599906   -3.471400 H    1804 MOH     0.0372 ****
11127 C1    -23.625750   15.774020   -3.482006 C    1804 MOH     0.1166 ****
11128 HC2   -23.263752   15.042847   -4.205376 H    1804 MOH     0.0372 ****
11129 HC3   -24.614751   16.146342   -3.752121 H    1804 MOH     0.0372 ****
11130 O1    -23.689259   15.200431   -2.197193 O    1804 MOH    -0.6497 ****
11131 HO1   -23.965232   15.884247   -1.582717 H    1804 MOH     0.4215 ****
11132 HC1   -22.186993    5.340827  -13.834049 H    1805 MOH     0.0372 ****
11133 C1    -22.203737    4.333678  -14.251950 C    1805 MOH     0.1166 ****
11134 HC2   -21.702019    3.675173  -13.544136 H    1805 MOH     0.0372 ****
11135 HC3   -21.652367    4.305101  -15.192402 H    1805 MOH     0.0372 ****
11136 O1    -23.546653    3.898077  -14.401149 O    1805 MOH    -0.6497 ****
11137 HO1   -24.038556    4.158948  -13.618382 H    1805 MOH     0.4215 ****
11138 HC1   -24.339355   12.059369  -17.498984 H    1806 MOH     0.0372 ****
11139 C1    -24.743500   12.405155  -18.450043 C    1806 MOH     0.1166 ****
11140 HC2   -25.676498   11.881781  -18.662175 H    1806 MOH     0.0372 ****
11141 HC3   -24.022390   12.260227  -19.254023 H    1806 MOH     0.0372 ****
11142 O1    -24.990029   13.771154  -18.295893 O    1806 MOH    -0.6497 ****
11143 HO1   -24.165573   14.226759  -18.107803 H    1806 MOH     0.4215 ****
11144 HC1   -27.387187    4.378585  -10.876222 H    1807 MOH     0.0372 ****
11145 C1    -26.633168    3.624959  -11.103910 C    1807 MOH     0.1166 ****
11146 HC2   -27.119297    2.735386  -11.503426 H    1807 MOH     0.0372 ****
11147 HC3   -26.144152    3.335511  -10.174065 H    1807 MOH     0.0372 ****
11148 O1    -25.699015    4.167113  -12.048605 O    1807 MOH    -0.6497 ****
11149 HO1   -25.482509    5.064851  -11.789097 H    1807 MOH     0.4215 ****
11150 HC1   -22.099813   13.946700  -19.165635 H    1808 MOH     0.0372 ****
11151 C1    -21.679502   14.830150  -18.684802 C    1808 MOH     0.1166 ****
11152 HC2   -21.426046   15.571937  -19.442113 H    1808 MOH     0.0372 ****
11153 HC3   -20.792692   14.547234  -18.118409 H    1808 MOH     0.0372 ****
11154 O1    -22.684669   15.326580  -17.861730 O    1808 MOH    -0.6497 ****
11155 HO1   -22.328444   15.522947  -16.992696 H    1808 MOH     0.4215 ****
11156 HC1   -27.748609   16.254528   -6.589741 H    1809 MOH     0.0372 ****
11157 C1    -27.791332   17.128588   -7.239572 C    1809 MOH     0.1166 ****
11158 HC2   -26.990548   17.828734   -7.001277 H    1809 MOH     0.0372 ****
11159 HC3   -28.730681   17.644614   -7.044410 H    1809 MOH     0.0372 ****
11160 O1    -27.790755   16.774228   -8.631158 O    1809 MOH    -0.6497 ****
11161 HO1   -27.681636   17.566638   -9.162195 H    1809 MOH     0.4215 ****
11162 HC1   -22.640213    4.408387   -6.061532 H    1810 MOH     0.0372 ****
11163 C1    -22.565158    5.450237   -6.371244 C    1810 MOH     0.1166 ****
11164 HC2   -21.526505    5.674774   -6.614489 H    1810 MOH     0.0372 ****
11165 HC3   -22.927156    6.051587   -5.536151 H    1810 MOH     0.0372 ****
11166 O1    -23.453123    5.607821   -7.447461 O    1810 MOH    -0.6497 ****
11167 HO1   -23.085928    5.087304   -8.165174 H    1810 MOH     0.4215 ****
11168 HC1   -23.301857    7.204480  -17.380190 H    1811 MOH     0.0372 ****
11169 C1    -23.341117    6.134869  -17.585251 C    1811 MOH     0.1166 ****
11170 HC2   -24.119385    5.706617  -16.953805 H    1811 MOH     0.0372 ****
11171 HC3   -22.372323    5.698452  -17.341299 H    1811 MOH     0.0372 ****
11172 O1    -23.629792    5.842972  -18.953503 O    1811 MOH    -0.6497 ****
11173 HO1   -23.200243    5.028517  -19.225739 H    1811 MOH     0.4215 ****
11174 HC1   -19.140316    5.884613  -19.626668 H    1812 MOH     0.0372 ****
11175 C1    -19.662818    6.813786  -19.398980 C    1812 MOH     0.1166 ****
11176 HC2   -20.695120    6.600681  -19.120380 H    1812 MOH     0.0372 ****
11177 HC3   -19.622403    7.460043  -20.275085 H    1812 MOH     0.0372 ****
11178 O1    -18.975194    7.377169  -18.332663 O    1812 MOH    -0.6497 ****
11179 HO1   -18.512736    6.661918  -17.890014 H    1812 MOH     0.4215 ****
11180 HC1   -25.740007    1.098719   -9.986681 H    1813 MOH     0.0372 ****
11181 C1    -25.488860    0.578202   -9.062493 C    1813 MOH     0.1166 ****
11182 HC2   -26.155699   -0.275445   -8.941578 H    1813 MOH     0.0372 ****
11183 HC3   -25.611835    1.248137   -8.211843 H    1813 MOH     0.0372 ****
11184 O1    -24.148830    0.147500   -9.159366 O    1813 MOH    -0.6497 ****
11185 HO1   -23.958881   -0.408126   -8.400641 H    1813 MOH     0.4215 ****
11186 HC1   -24.267186    8.029141  -20.007799 H    1814 MOH     0.0372 ****
11187 C1    -25.204226    8.285113  -20.500652 C    1814 MOH     0.1166 ****
11188 HC2   -26.042538    7.953207  -19.887591 H    1814 MOH     0.0372 ****
11189 HC3   -25.222701    7.786234  -21.469389 H    1814 MOH     0.0372 ****
11190 O1    -25.234825    9.668667  -20.717734 O    1814 MOH    -0.6497 ****
11191 HO1   -26.151080    9.909941  -20.869762 H    1814 MOH     0.4215 ****
11192 HC1   -27.596765    3.319181  -21.715462 H    1815 MOH     0.0372 ****
11193 C1    -27.291347    2.338977  -22.082450 C    1815 MOH     0.1166 ****
11194 HC2   -26.342183    2.418585  -22.612073 H    1815 MOH     0.0372 ****
11195 HC3   -28.058068    1.946650  -22.749252 H    1815 MOH     0.0372 ****
11196 O1    -27.137772    1.418377  -21.008355 O    1815 MOH    -0.6497 ****
11197 HO1   -26.288490    0.984409  -21.116542 H    1815 MOH     0.4215 ****
11198 HC1   -21.755713    0.670874  -15.042495 H    1816 MOH     0.0372 ****
11199 C1    -20.884491    1.174244  -15.461809 C    1816 MOH     0.1166 ****
11200 HC2   -21.182404    2.123422  -15.905165 H    1816 MOH     0.0372 ****
11201 HC3   -20.445705    0.562689  -16.250940 H    1816 MOH     0.0372 ****
11202 O1    -19.915697    1.449404  -14.476102 O    1816 MOH    -0.6497 ****
11203 HO1   -19.485571    0.611270  -14.292962 H    1816 MOH     0.4215 ****
11204 HC1   -26.669541    1.916440  -16.696418 H    1817 MOH     0.0372 ****
11205 C1    -27.167794    1.140768  -17.276245 C    1817 MOH     0.1166 ****
11206 HC2   -26.440910    0.395307  -17.598686 H    1817 MOH     0.0372 ****
11207 HC3   -27.630252    1.614744  -18.142451 H    1817 MOH     0.0372 ****
11208 O1    -28.142939    0.510024  -16.479336 O    1817 MOH    -0.6497 ****
11209 HO1   -27.671244    0.140968  -15.729803 H    1817 MOH     0.4215 ****
11210 HC1   -23.328992    7.968313   -9.509384 H    1818 MOH     0.0372 ****
11211 C1    -23.951376    8.862785   -9.518577 C    1818 MOH     0.1166 ****
11212 HC2   -23.507393    9.649887   -8.909051 H    1818 MOH     0.0372 ****
11213 HC3   -24.923056    8.584767   -9.109162 H    1818 MOH     0.0372 ****
11214 O1    -24.130932    9.315532  -10.840159 O    1818 MOH    -0.6497 ****
11215 HO1   -23.273567    9.591099  -11.173207 H    1818 MOH     0.4215 ****
11216 HC1   -27.700111    8.147942  -11.668889 H    1819 MOH     0.0372 ****
11217 C1    -27.246314    9.027309  -11.212098 C    1819 MOH     0.1166 ****
11218 HC2   -26.409156    9.344109  -11.834352 H    1819 MOH     0.0372 ****
11219 HC3   -26.942628    8.778277  -10.195278 H    1819 MOH     0.0372 ****
11220 O1    -28.196632   10.025067  -11.247453 O    1819 MOH    -0.6497 ****
11221 HO1   -28.524567   10.080589  -12.148307 H    1819 MOH     0.4215 ****
11222 HC1   -20.337163   11.467000   -6.292049 H    1820 MOH     0.0372 ****
11223 C1    -20.590043   12.331670   -5.678280 C    1820 MOH     0.1166 ****
11224 HC2   -19.782330   12.514974   -4.970466 H    1820 MOH     0.0372 ****
11225 HC3   -21.508030   12.098969   -5.139465 H    1820 MOH     0.0372 ****
11226 O1    -20.782300   13.440064   -6.534586 O    1820 MOH    -0.6497 ****
11227 HO1   -21.467615   13.168988   -7.149769 H    1820 MOH     0.4215 ****
11228 HC1   -24.077816    4.207529   -9.826168 H    1821 MOH     0.0372 ****
11229 C1    -23.255091    3.516773  -10.011430 C    1821 MOH     0.1166 ****
11230 HC2   -22.979695    3.638023  -11.058655 H    1821 MOH     0.0372 ****
11231 HC3   -23.563396    2.476965   -9.904657 H    1821 MOH     0.0372 ****
11232 O1    -22.165054    3.827450   -9.126840 O    1821 MOH    -0.6497 ****
11233 HO1   -21.554218    3.086888   -9.114112 H    1821 MOH     0.4215 ****
11234 HC1   -28.330578    5.549033  -19.021385 H    1822 MOH     0.0372 ****
11235 C1    -27.403353    5.372262  -18.477620 C    1822 MOH     0.1166 ****
11236 HC2   -27.469171    4.447579  -17.904156 H    1822 MOH     0.0372 ****
11237 HC3   -27.179918    6.208762  -17.815061 H    1822 MOH     0.0372 ****
11238 O1    -26.399918    5.270200  -19.408172 O    1822 MOH    -0.6497 ****
11239 HO1   -25.589896    5.611087  -19.021385 H    1822 MOH     0.4215 ****
11240 HC1   -19.243662    5.165280  -10.891071 H    1823 MOH     0.0372 ****
11241 C1    -20.075046    5.848687  -11.060777 C    1823 MOH     0.1166 ****
11242 HC2   -20.997074    5.388592  -10.703688 H    1823 MOH     0.0372 ****
11243 HC3   -20.145483    6.036890  -12.132043 H    1823 MOH     0.0372 ****
11244 O1    -19.747111    7.069350  -10.408824 O    1823 MOH    -0.6497 ****
11245 HO1   -19.133965    6.872166   -9.696768 H    1823 MOH     0.4215 ****
11246 HC1   -26.737091    7.394724   -2.407911 H    1824 MOH     0.0372 ****
11247 C1    -27.628520    8.021385   -2.439731 C    1824 MOH     0.1166 ****
11248 HC2   -28.517062    7.390641   -2.480036 H    1824 MOH     0.0372 ****
11249 HC3   -27.619282    8.639473   -3.337756 H    1824 MOH     0.0372 ****
11250 O1    -27.618127    8.868908   -1.318259 O    1824 MOH    -0.6497 ****
11251 HO1   -26.862376    9.449029   -1.434932 H    1824 MOH     0.4215 ****
11252 HC1   -19.483839    7.991583  -14.868547 H    1825 MOH     0.0372 ****
11253 C1    -20.493625    7.670700  -15.124519 C    1825 MOH     0.1166 ****
11254 HC2   -21.191064    8.101401  -14.405392 H    1825 MOH     0.0372 ****
11255 HC3   -20.575031    6.584351  -15.089871 H    1825 MOH     0.0372 ****
11256 O1    -20.848695    8.129979  -16.396604 O    1825 MOH    -0.6497 ****
11257 HO1   -20.249983    7.722547  -17.025929 H    1825 MOH     0.4215 ****
11258 HC1   -25.080096    8.656619   -3.821417 H    1826 MOH     0.0372 ****
11259 C1    -24.855506    9.722555   -3.771213 C    1826 MOH     0.1166 ****
11260 HC2   -25.214618   10.270425   -4.642368 H    1826 MOH     0.0372 ****
11261 HC3   -23.769511    9.769096   -3.843338 H    1826 MOH     0.0372 ****
11262 O1    -25.216350   10.320639   -2.504785 O    1826 MOH    -0.6497 ****
11263 HO1   -25.288519   11.269408   -2.630650 H    1826 MOH     0.4215 ****
11264 HC1   -25.993464   -4.794346  -12.453777 H    1827 MOH     0.0372 ****
11265 C1    -25.412072   -4.037045  -11.926982 C    1827 MOH     0.1166 ****
11266 HC2   -24.358408   -4.281177  -12.064161 H    1827 MOH     0.0372 ****
11267 HC3   -25.641857   -4.026430  -10.862080 H    1827 MOH     0.0372 ****
11268 O1    -25.540244   -2.776782  -12.479233 O    1827 MOH    -0.6497 ****
11269 HO1   -24.741768   -2.300357  -12.238109 H    1827 MOH     0.4215 ****
11270 HC1   -23.680599   15.100002  -13.594340 H    1828 MOH     0.0372 ****
11271 C1    -24.173078   15.536419  -14.463375 C    1828 MOH     0.1166 ****
11272 HC2   -25.115314   16.023868  -14.213059 H    1828 MOH     0.0372 ****
11273 HC3   -24.425380   14.701960  -15.118155 H    1828 MOH     0.0372 ****
11274 O1    -23.335343   16.461510  -15.163410 O    1828 MOH    -0.6497 ****
11275 HO1   -23.876320   17.161248  -15.535348 H    1828 MOH     0.4215 ****
11276 HC1   -25.772916   -5.116862  -17.116439 H    1829 MOH     0.0372 ****
11277 C1    -25.805825   -4.031738  -17.215434 C    1829 MOH     0.1166 ****
11278 HC2   -25.360688   -3.562660  -16.337915 H    1829 MOH     0.0372 ****
11279 HC3   -26.843323   -3.705956  -17.290387 H    1829 MOH     0.0372 ****
11280 O1    -25.119933   -3.654516  -18.380746 O    1829 MOH    -0.6497 ****
11281 HO1   -25.018319   -2.701257  -18.340441 H    1829 MOH     0.4215 ****
11282 HC1   -17.339560    3.700077  -15.933449 H    1830 MOH     0.0372 ****
11283 C1    -18.245423    4.024634  -16.444688 C    1830 MOH     0.1166 ****
11284 HC2   -19.131078    3.631899  -15.945470 H    1830 MOH     0.0372 ****
11285 HC3   -18.237917    3.676398  -17.477771 H    1830 MOH     0.0372 ****
11286 O1    -18.338376    5.416761  -16.430546 O    1830 MOH    -0.6497 ****
11287 HO1   -18.068177    5.702126  -15.554440 H    1830 MOH     0.4215 ****
11288 HC1   -24.805277    8.263884  -13.948601 H    1831 MOH     0.0372 ****
11289 C1    -24.141901    7.442080  -13.679193 C    1831 MOH     0.1166 ****
11290 HC2   -23.125765    7.828283  -13.601411 H    1831 MOH     0.0372 ****
11291 HC3   -24.155758    6.659468  -14.437919 H    1831 MOH     0.0372 ****
11292 O1    -24.520066    7.015053  -12.392259 O    1831 MOH    -0.6497 ****
11293 HO1   -24.466372    7.784193  -11.820916 H    1831 MOH     0.4215 ****
11294 HC1   -21.025365   14.463135   -9.845260 H    1832 MOH     0.0372 ****
11295 C1    -21.364847   13.717265  -10.564388 C    1832 MOH     0.1166 ****
11296 HC2   -21.871183   12.879948  -10.082848 H    1832 MOH     0.0372 ****
11297 HC3   -20.478037   13.320448  -11.059362 H    1832 MOH     0.0372 ****
11298 O1    -22.206046   14.337802  -11.518982 O    1832 MOH    -0.6497 ****
11299 HO1   -21.676616   15.022843  -11.934761 H    1832 MOH     0.4215 ****
11300 HC1   -27.656810   11.959348  -15.682427 H    1833 MOH     0.0372 ****
11301 C1    -27.000363   12.234915  -14.857233 C    1833 MOH     0.1166 ****
11302 HC2   -27.547113   12.198990  -13.913953 H    1833 MOH     0.0372 ****
11303 HC3   -26.653952   13.257577  -15.007847 H    1833 MOH     0.0372 ****
11304 O1    -25.881458   11.362897  -14.792179 O    1833 MOH    -0.6497 ****
11305 HO1   -25.276395   11.689496  -14.121842 H    1833 MOH     0.4215 ****
11306 HC1   -23.880362   16.674207   -7.914859 H    1834 MOH     0.0372 ****
11307 C1    -24.192131   16.255345   -6.957436 C    1834 MOH     0.1166 ****
11308 HC2   -24.719252   17.001622   -6.364881 H    1834 MOH     0.0372 ****
11309 HC3   -23.299547   15.921806   -6.429227 H    1834 MOH     0.0372 ****
11310 O1    -25.006772   15.141235   -7.184417 O    1834 MOH    -0.6497 ****
11311 HO1   -25.692664   15.382510   -7.810207 H    1834 MOH     0.4215 ****
11312 HC1   -29.043028   13.598465   -9.122597 H    1835 MOH     0.0372 ****
11313 C1    -28.461059   13.840964  -10.012137 C    1835 MOH     0.1166 ****
11314 HC2   -28.497432   13.019160  -10.727022 H    1835 MOH     0.0372 ****
11315 HC3   -27.433953   13.984259   -9.674847 H    1835 MOH     0.0372 ****
11316 O1    -28.926980   15.085305  -10.543882 O    1835 MOH    -0.6497 ****
11317 HO1   -28.511288   15.762589  -10.005773 H    1835 MOH     0.4215 ****
11318 HC1   -17.739664    2.594132  -11.496354 H    1836 MOH     0.0372 ****
11319 C1    -17.355726    3.190991  -12.323669 C    1836 MOH     0.1166 ****
11320 HC2   -16.668102    2.573720  -12.902083 H    1836 MOH     0.0372 ****
11321 HC3   -16.854586    4.052803  -11.881728 H    1836 MOH     0.0372 ****
11322 O1    -18.420938    3.630674  -13.110679 O    1836 MOH    -0.6497 ****
11323 HO1   -18.950368    2.874599  -13.372309 H    1836 MOH     0.4215 ****
11324 HC1   -27.273449   11.590291   -6.895918 H    1837 MOH     0.0372 ****
11325 C1    -27.209941   10.667242   -7.472210 C    1837 MOH     0.1166 ****
11326 HC2   -26.178216   10.463118   -7.757881 H    1837 MOH     0.0372 ****
11327 HC3   -27.827128   10.779102   -8.363164 H    1837 MOH     0.0372 ****
11328 O1    -27.727824    9.613961   -6.707120 O    1837 MOH    -0.6497 ****
11329 HO1   -27.477831    8.789300   -7.131384 H    1837 MOH     0.4215 ****
11330 HC1   -17.847629    8.050779  -12.760661 H    1838 MOH     0.0372 ****
11331 C1    -17.207347    7.175494  -12.651767 C    1838 MOH     0.1166 ****
11332 HC2   -17.357458    6.774595  -11.649089 H    1838 MOH     0.0372 ****
11333 HC3   -16.168694    7.488213  -12.757833 H    1838 MOH     0.0372 ****
11334 O1    -17.586666    6.233666  -13.655151 O    1838 MOH    -0.6497 ****
11335 HO1   -17.657681    5.360422  -13.262707 H    1838 MOH     0.4215 ****
11336 HC1   -19.711893   10.264301   -8.339830 H    1839 MOH     0.0372 ****
11337 C1    -18.853373   10.626009   -8.905515 C    1839 MOH     0.1166 ****
11338 HC2   -19.201515   11.145301   -9.797884 H    1839 MOH     0.0372 ****
11339 HC3   -18.224061    9.785426   -9.198964 H    1839 MOH     0.0372 ****
11340 O1    -18.103972   11.515582   -8.110020 O    1839 MOH    -0.6497 ****
11341 HO1   -17.936541   11.097127   -7.262199 H    1839 MOH     0.4215 ****
11342 HC1   -18.912840   11.585392  -18.271852 H    1840 MOH     0.0372 ****
11343 C1    -19.359709   11.999356  -19.175534 C    1840 MOH     0.1166 ****
11344 HC2   -20.387393   12.318198  -19.003707 H    1840 MOH     0.0372 ****
11345 HC3   -19.329109   11.226950  -19.944866 H    1840 MOH     0.0372 ****
11346 O1    -18.549109   13.063659  -19.563736 O    1840 MOH    -0.6497 ****
11347 HO1   -18.367244   13.609896  -18.795818 H    1840 MOH     0.4215 ****
11348 HC1   -27.130266   14.412512   -3.038650 H    1841 MOH     0.0372 ****
11349 C1    -26.692635   13.509058   -3.463621 C    1841 MOH     0.1166 ****
11350 HC2   -26.448993   13.704201   -4.507311 H    1841 MOH     0.0372 ****
11351 HC3   -27.398157   12.682764   -3.370283 H    1841 MOH     0.0372 ****
11352 O1    -25.556410   13.211445   -2.716210 O    1841 MOH    -0.6497 ****
11353 HO1   -24.928830   13.937311   -2.764293 H    1841 MOH     0.4215 ****
11354 HC1   -26.039074   -6.670246  -13.953550 H    1842 MOH     0.0372 ****
11355 C1    -25.201339   -6.442036  -14.613281 C    1842 MOH     0.1166 ****
11356 HC2   -24.843959   -5.440603  -14.377815 H    1842 MOH     0.0372 ****
11357 HC3   -25.551791   -6.486943  -15.644243 H    1842 MOH     0.0372 ****
11358 O1    -24.120539   -7.383864  -14.408927 O    1842 MOH    -0.6497 ****
11359 HO1   -23.287423   -6.995620  -14.686820 H    1842 MOH     0.4215 ****
11360 HC1   -25.149378   12.198581   -6.840763 H    1843 MOH     0.0372 ****
11361 C1    -24.223885   12.498236   -6.347203 C    1843 MOH     0.1166 ****
11362 HC2   -23.779903   11.644180   -5.835258 H    1843 MOH     0.0372 ****
11363 HC3   -24.469836   13.250229   -5.597670 H    1843 MOH     0.0372 ****
11364 O1    -23.341694   12.997523   -7.373215 O    1843 MOH    -0.6497 ****
11365 HO1   -23.532220   13.935678   -7.448168 H    1843 MOH     0.4215 ****
11366 HC1   -26.732472   16.067550  -11.492819 H    1844 MOH     0.0372 ****
11367 C1    -25.786772   16.410479  -11.072798 C    1844 MOH     0.1166 ****
11368 HC2   -25.900510   17.384968  -10.596915 H    1844 MOH     0.0372 ****
11369 HC3   -25.057002   16.523972  -11.874657 H    1844 MOH     0.0372 ****
11370 O1    -25.345099   15.488246  -10.100526 O    1844 MOH    -0.6497 ****
11371 HO1   -24.513715   15.100002  -10.382661 H    1844 MOH     0.4215 ****
11372 HC1   -26.814456    8.001789  -16.422060 H    1845 MOH     0.0372 ****
11373 C1    -26.032723    8.674990  -16.773492 C    1845 MOH     0.1166 ****
11374 HC2   -25.473271    8.240206  -17.601514 H    1845 MOH     0.0372 ****
11375 HC3   -25.347409    8.879931  -15.951834 H    1845 MOH     0.0372 ****
11376 O1    -26.606610    9.874424  -17.218970 O    1845 MOH    -0.6497 ****
11377 HO1   -26.411465   10.517823  -16.533076 H    1845 MOH     0.4215 ****
11378 HC1   -27.416170   20.201717  -12.059212 H    1846 MOH     0.0372 ****
11379 C1    -28.216955   19.807758  -11.433422 C    1846 MOH     0.1166 ****
11380 HC2   -28.782758   19.077402  -12.012543 H    1846 MOH     0.0372 ****
11381 HC3   -28.889568   20.584654  -11.072091 H    1846 MOH     0.0372 ****
11382 O1    -27.719856   19.066787  -10.389025 O    1846 MOH    -0.6497 ****
11383 HO1   -27.175415   19.662830   -9.870009 H    1846 MOH     0.4215 ****
11384 HC1   -15.306826   21.440751   -7.552820 H    1847 MOH     0.0372 ****
11385 C1    -15.245627   22.220505   -6.794801 C    1847 MOH     0.1166 ****
11386 HC2   -14.885360   21.774698   -5.867077 H    1847 MOH     0.0372 ****
11387 HC3   -16.238669   22.645900   -6.649138 H    1847 MOH     0.0372 ****
11388 O1    -14.374405   23.243167   -7.222601 O    1847 MOH    -0.6497 ****
11389 HO1   -13.487595   22.883092   -7.289069 H    1847 MOH     0.4215 ****
11390 HC1    -9.048349   26.189903  -13.333418 H    1848 MOH     0.0372 ****
11391 C1     -8.614759   26.383005  -12.352661 C    1848 MOH     0.1166 ****
11392 HC2    -8.328970   27.433836  -12.301749 H    1848 MOH     0.0372 ****
11393 HC3    -7.726794   25.763692  -12.226089 H    1848 MOH     0.0372 ****
11394 O1     -9.569119   26.068245  -11.345034 O    1848 MOH    -0.6497 ****
11395 HO1    -9.368201   25.176631  -11.052291 H    1848 MOH     0.4215 ****
11396 HC1   -15.685567   15.336214  -20.965928 H    1849 MOH     0.0372 ****
11397 C1    -15.872629   14.350295  -20.540957 C    1849 MOH     0.1166 ****
11398 HC2   -16.264650   14.445008  -19.528380 H    1849 MOH     0.0372 ****
11399 HC3   -14.915382   13.833861  -20.472368 H    1849 MOH     0.0372 ****
11400 O1    -16.713828   13.546454  -21.390193 O    1849 MOH    -0.6497 ****
11401 HO1   -17.429743   13.200259  -20.852791 H    1849 MOH     0.4215 ****
11402 HC1   -13.055160   15.808149  -14.329024 H    1850 MOH     0.0372 ****
11403 C1    -13.903865   16.242934  -13.800815 C    1850 MOH     0.1166 ****
11404 HC2   -14.040119   17.270087  -14.138812 H    1850 MOH     0.0372 ****
11405 HC3   -13.739320   16.230686  -12.723185 H    1850 MOH     0.0372 ****
11406 O1    -15.069535   15.544829  -14.134570 O    1850 MOH    -0.6497 ****
11407 HO1   -15.042399   14.744254  -13.604947 H    1850 MOH     0.4215 ****
11408 HC1    -4.978607   24.578547  -17.948704 H    1851 MOH     0.0372 ****
11409 C1     -5.173174   25.319926  -17.173715 C    1851 MOH     0.1166 ****
11410 HC2    -6.237230   25.361976  -16.941077 H    1851 MOH     0.0372 ****
11411 HC3    -4.871797   26.308295  -17.520904 H    1851 MOH     0.0372 ****
11412 O1     -4.503447   24.989653  -15.962441 O    1851 MOH    -0.6497 ****
11413 HO1    -4.721108   24.095181  -15.690205 H    1851 MOH     0.4215 ****
11414 HC1   -10.898756   23.361151  -23.498078 H    1852 MOH     0.0372 ****
11415 C1    -10.700148   24.321759  -23.023609 C    1852 MOH     0.1166 ****
11416 HC2    -9.635514   24.538947  -23.107048 H    1852 MOH     0.0372 ****
11417 HC3   -10.929356   24.286650  -21.958706 H    1852 MOH     0.0372 ****
11418 O1    -11.493427   25.317477  -23.674855 O    1852 MOH    -0.6497 ****
11419 HO1   -11.446084   26.093557  -23.111290 H    1852 MOH     0.4215 ****
11420 HC1   -12.057498   17.893890  -18.486105 H    1853 MOH     0.0372 ****
11421 C1    -12.010156   18.617306  -17.671518 C    1853 MOH     0.1166 ****
11422 HC2   -12.803435   19.344804  -17.842638 H    1853 MOH     0.0372 ****
11423 HC3   -11.049445   19.130882  -17.718187 H    1853 MOH     0.0372 ****
11424 O1    -12.195485   17.975540  -16.377513 O    1853 MOH    -0.6497 ****
11425 HO1   -12.387165   18.651190  -15.722025 H    1853 MOH     0.4215 ****
11426 HC1    -5.299613   26.608358  -14.167097 H    1854 MOH     0.0372 ****
11427 C1     -5.217052   27.548145  -13.621210 C    1854 MOH     0.1166 ****
11428 HC2    -6.043818   28.203792  -13.894154 H    1854 MOH     0.0372 ****
11429 HC3    -4.259806   28.010283  -13.865869 H    1854 MOH     0.0372 ****
11430 O1     -5.258044   27.190112  -12.279829 O    1854 MOH    -0.6497 ****
11431 HO1    -5.034032   27.933124  -11.715558 H    1854 MOH     0.4215 ****
11432 HC1   -17.317737   20.578531   -5.473926 H    1855 MOH     0.0372 ****
11433 C1    -17.018092   19.531374   -5.488775 C    1855 MOH     0.1166 ****
11434 HC2   -16.384161   19.342763   -6.355688 H    1855 MOH     0.0372 ****
11435 HC3   -17.885849   18.877360   -5.567971 H    1855 MOH     0.0372 ****
11436 O1    -16.313147   19.220289   -4.295179 O    1855 MOH    -0.6497 ****
11437 HO1   -15.878980   18.371949   -4.413973 H    1855 MOH     0.4215 ****
11438 HC1   -10.511932   15.230886  -17.881529 H    1856 MOH     0.0372 ****
11439 C1    -11.192050   14.662196  -17.247254 C    1856 MOH     0.1166 ****
11440 HC2   -10.837557   14.699347  -16.216999 H    1856 MOH     0.0372 ****
11441 HC3   -11.246899   13.625654  -17.578887 H    1856 MOH     0.0372 ****
11442 O1    -12.424693   15.285183  -17.329278 O    1856 MOH    -0.6497 ****
11443 HO1   -12.322502   16.178022  -16.993403 H    1856 MOH     0.4215 ****
11444 HC1   -16.643969   21.694273  -12.897840 H    1857 MOH     0.0372 ****
11445 C1    -16.784265   21.539955  -13.966986 C    1857 MOH     0.1166 ****
11446 HC2   -16.980564   22.494440  -14.456303 H    1857 MOH     0.0372 ****
11447 HC3   -17.618536   20.861038  -14.143055 H    1857 MOH     0.0372 ****
11448 O1    -15.608780   20.985554  -14.518529 O    1857 MOH    -0.6497 ****
11449 HO1   -14.962148   20.884717  -13.816372 H    1857 MOH     0.4215 ****
11450 HC1   -10.182265   15.605250  -12.652474 H    1858 MOH     0.0372 ****
11451 C1    -10.348542   15.692207  -11.578379 C    1858 MOH     0.1166 ****
11452 HC2   -10.276373   16.748345  -11.318871 H    1858 MOH     0.0372 ****
11453 HC3    -9.561613   15.138214  -11.065726 H    1858 MOH     0.0372 ****
11454 O1    -11.674138   15.173323  -11.344326 O    1858 MOH    -0.6497 ****
11455 HO1   -11.985330   15.521967  -10.505698 H    1858 MOH     0.4215 ****
11456 HC1   -10.588719   21.743263  -13.834049 H    1859 MOH     0.0372 ****
11457 C1    -10.605462   20.736114  -14.251950 C    1859 MOH     0.1166 ****
11458 HC2   -10.103745   20.077610  -13.544136 H    1859 MOH     0.0372 ****
11459 HC3   -10.054093   20.707537  -15.192402 H    1859 MOH     0.0372 ****
11460 O1    -11.948379   20.300514  -14.401149 O    1859 MOH    -0.6497 ****
11461 HO1   -12.440282   20.561384  -13.618382 H    1859 MOH     0.4215 ****
11462 HC1   -16.973636   17.205992  -12.295385 H    1860 MOH     0.0372 ****
11463 C1    -17.159543   17.791828  -13.195532 C    1860 MOH     0.1166 ****
11464 HC2   -17.141645   17.168024  -14.089315 H    1860 MOH     0.0372 ****
11465 HC3   -16.411874   18.577298  -13.304426 H    1860 MOH     0.0372 ****
11466 O1    -18.402000   18.380114  -13.066132 O    1860 MOH    -0.6497 ****
11467 HO1   -18.700491   18.490749  -13.971935 H    1860 MOH     0.4215 ****
11468 HC1   -15.788913   20.781022  -10.876222 H    1861 MOH     0.0372 ****
11469 C1    -15.034894   20.027395  -11.103910 C    1861 MOH     0.1166 ****
11470 HC2   -15.521023   19.137822  -11.503426 H    1861 MOH     0.0372 ****
11471 HC3   -14.545878   19.737947  -10.174065 H    1861 MOH     0.0372 ****
11472 O1    -14.100741   20.569549  -12.048605 O    1861 MOH    -0.6497 ****
11473 HO1   -13.884235   21.467287  -11.789097 H    1861 MOH     0.4215 ****
11474 HC1   -19.852304   14.151478  -13.610604 H    1862 MOH     0.0372 ****
11475 C1    -20.259336   15.152094  -13.755561 C    1862 MOH     0.1166 ****
11476 HC2   -21.304918   15.106371  -14.061031 H    1862 MOH     0.0372 ****
11477 HC3   -19.702771   15.609741  -14.572269 H    1862 MOH     0.0372 ****
11478 O1    -20.104606   15.975939  -12.598734 O    1862 MOH    -0.6497 ****
11479 HO1   -19.821705   16.856123  -12.858949 H    1862 MOH     0.4215 ****
11480 HC1   -20.446398   18.556885  -11.388167 H    1863 MOH     0.0372 ****
11481 C1    -20.358063   19.542805  -10.932083 C    1863 MOH     0.1166 ****
11482 HC2   -20.959085   19.574648  -10.024158 H    1863 MOH     0.0372 ****
11483 HC3   -20.710247   20.278060  -11.655454 H    1863 MOH     0.0372 ****
11484 O1    -19.018033   19.746521  -10.624492 O    1863 MOH    -0.6497 ****
11485 HO1   -18.533059   19.279893  -11.308264 H    1863 MOH     0.4215 ****
11486 HC1   -18.482830   13.719551  -10.574287 H    1864 MOH     0.0372 ****
11487 C1    -17.406649   13.727716  -10.743993 C    1864 MOH     0.1166 ****
11488 HC2   -16.986338   14.587895  -10.224269 H    1864 MOH     0.0372 ****
11489 HC3   -17.202844   13.788137  -11.813138 H    1864 MOH     0.0372 ****
11490 O1    -16.813133   12.582988  -10.243361 O    1864 MOH    -0.6497 ****
11491 HO1   -17.275013   12.321709   -9.444331 H    1864 MOH     0.4215 ****
11492 HC1   -11.041939   20.810824   -6.061532 H    1865 MOH     0.0372 ****
11493 C1    -10.966884   21.852674   -6.371244 C    1865 MOH     0.1166 ****
11494 HC2    -9.928231   22.077210   -6.614489 H    1865 MOH     0.0372 ****
11495 HC3   -11.328882   22.454023   -5.536151 H    1865 MOH     0.0372 ****
11496 O1    -11.854848   22.010257   -7.447461 O    1865 MOH    -0.6497 ****
11497 HO1   -11.487654   21.489741   -8.165174 H    1865 MOH     0.4215 ****
11498 HC1   -21.317042   16.898172   -5.512817 H    1866 MOH     0.0372 ****
11499 C1    -20.324577   16.918993   -5.963244 C    1866 MOH     0.1166 ****
11500 HC2   -19.801498   17.830203   -5.673330 H    1866 MOH     0.0372 ****
11501 HC3   -20.384621   16.863471   -7.049360 H    1866 MOH     0.0372 ****
11502 O1    -19.589610   15.854281   -5.514938 O    1866 MOH    -0.6497 ****
11503 HO1   -20.036479   15.058197   -5.810509 H    1866 MOH     0.4215 ****
11504 HC1   -11.703583   23.606916  -17.380190 H    1867 MOH     0.0372 ****
11505 C1    -11.742842   22.537306  -17.585251 C    1867 MOH     0.1166 ****
11506 HC2   -12.521111   22.109053  -16.953805 H    1867 MOH     0.0372 ****
11507 HC3   -10.774049   22.100889  -17.341299 H    1867 MOH     0.0372 ****
11508 O1    -12.031518   22.245408  -18.953503 O    1867 MOH    -0.6497 ****
11509 HO1   -11.601969   21.430953  -19.225739 H    1867 MOH     0.4215 ****
11510 HC1    -7.542042   22.287050  -19.626668 H    1868 MOH     0.0372 ****
11511 C1     -8.064544   23.216223  -19.398980 C    1868 MOH     0.1166 ****
11512 HC2    -9.096846   23.003117  -19.120380 H    1868 MOH     0.0372 ****
11513 HC3    -8.024129   23.862480  -20.275085 H    1868 MOH     0.0372 ****
11514 O1     -7.376920   23.779605  -18.332663 O    1868 MOH    -0.6497 ****
11515 HO1    -6.914462   23.064354  -17.890014 H    1868 MOH     0.4215 ****
11516 HC1   -14.141733   17.501155   -9.986681 H    1869 MOH     0.0372 ****
11517 C1    -13.890586   16.980639   -9.062493 C    1869 MOH     0.1166 ****
11518 HC2   -14.557425   16.126991   -8.941578 H    1869 MOH     0.0372 ****
11519 HC3   -14.013561   17.650574   -8.211843 H    1869 MOH     0.0372 ****
11520 O1    -12.550556   16.549937   -9.159366 O    1869 MOH    -0.6497 ****
11521 HO1   -12.360607   15.994311   -8.400641 H    1869 MOH     0.4215 ****
11522 HC1   -15.998491   19.721617  -21.715462 H    1870 MOH     0.0372 ****
11523 C1    -15.693073   18.741413  -22.082450 C    1870 MOH     0.1166 ****
11524 HC2   -14.743909   18.821022  -22.612073 H    1870 MOH     0.0372 ****
11525 HC3   -16.459794   18.349087  -22.749252 H    1870 MOH     0.0372 ****
11526 O1    -15.539498   17.820813  -21.008355 O    1870 MOH    -0.6497 ****
11527 HO1   -14.690216   17.386845  -21.116542 H    1870 MOH     0.4215 ****
11528 HC1   -10.157439   17.073311  -15.042495 H    1871 MOH     0.0372 ****
11529 C1     -9.286217   17.576681  -15.461809 C    1871 MOH     0.1166 ****
11530 HC2    -9.584130   18.525858  -15.905165 H    1871 MOH     0.0372 ****
11531 HC3    -8.847431   16.965125  -16.250940 H    1871 MOH     0.0372 ****
11532 O1     -8.317423   17.851840  -14.476102 O    1871 MOH    -0.6497 ****
11533 HO1    -7.887297   17.013707  -14.292962 H    1871 MOH     0.4215 ****
11534 HC1   -21.125939   18.658947  -15.879709 H    1872 MOH     0.0372 ****
11535 C1    -20.269151   18.400934  -16.503378 C    1872 MOH     0.1166 ****
11536 HC2   -20.083244   19.194161  -17.226748 H    1872 MOH     0.0372 ****
11537 HC3   -20.515102   17.497073  -17.060578 H    1872 MOH     0.0372 ****
11538 O1    -19.105790   18.210282  -15.702226 O    1872 MOH    -0.6497 ****
11539 HO1   -18.409506   17.862455  -16.263668 H    1872 MOH     0.4215 ****
11540 HC1   -15.071267   18.318876  -16.696418 H    1873 MOH     0.0372 ****
11541 C1    -15.569520   17.543205  -17.276245 C    1873 MOH     0.1166 ****
11542 HC2   -14.842636   16.797743  -17.598686 H    1873 MOH     0.0372 ****
11543 HC3   -16.031978   18.017181  -18.142451 H    1873 MOH     0.0372 ****
11544 O1    -16.544665   16.912461  -16.479336 O    1873 MOH    -0.6497 ****
11545 HO1   -16.072969   16.543405  -15.729803 H    1873 MOH     0.4215 ****
11546 HC1   -11.730718   24.370749   -9.509384 H    1874 MOH     0.0372 ****
11547 C1    -12.353102   25.265221   -9.518577 C    1874 MOH     0.1166 ****
11548 HC2   -11.909119   26.052324   -8.909051 H    1874 MOH     0.0372 ****
11549 HC3   -13.324782   24.987204   -9.109162 H    1874 MOH     0.0372 ****
11550 O1    -12.532658   25.717968  -10.840159 O    1874 MOH    -0.6497 ****
11551 HO1   -11.675293   25.993536  -11.173207 H    1874 MOH     0.4215 ****
11552 HC1   -12.479541   20.609966   -9.826168 H    1875 MOH     0.0372 ****
11553 C1    -11.656817   19.919210  -10.011430 C    1875 MOH     0.1166 ****
11554 HC2   -11.381421   20.040459  -11.058655 H    1875 MOH     0.0372 ****
11555 HC3   -11.965122   18.879401   -9.904657 H    1875 MOH     0.0372 ****
11556 O1    -10.566780   20.229887   -9.126840 O    1875 MOH    -0.6497 ****
11557 HO1    -9.955943   19.489324   -9.114112 H    1875 MOH     0.4215 ****
11558 HC1   -16.732303   21.951470  -19.021385 H    1876 MOH     0.0372 ****
11559 C1    -15.805079   21.774698  -18.477620 C    1876 MOH     0.1166 ****
11560 HC2   -15.870897   20.850016  -17.904156 H    1876 MOH     0.0372 ****
11561 HC3   -15.581644   22.611199  -17.815061 H    1876 MOH     0.0372 ****
11562 O1    -14.801644   21.672636  -19.408172 O    1876 MOH    -0.6497 ****
11563 HO1   -13.991622   22.013523  -19.021385 H    1876 MOH     0.4215 ****
11564 HC1    -7.645388   21.567716  -10.891071 H    1877 MOH     0.0372 ****
11565 C1     -8.476772   22.251124  -11.060777 C    1877 MOH     0.1166 ****
11566 HC2    -9.398800   21.791028  -10.703688 H    1877 MOH     0.0372 ****
11567 HC3    -8.547209   22.439326  -12.132043 H    1877 MOH     0.0372 ****
11568 O1     -8.148837   23.471786  -10.408824 O    1877 MOH    -0.6497 ****
11569 HO1    -7.535691   23.274602   -9.696768 H    1877 MOH     0.4215 ****
11570 HC1    -7.885565   24.394019  -14.868547 H    1878 MOH     0.0372 ****
11571 C1     -8.895351   24.073136  -15.124519 C    1878 MOH     0.1166 ****
11572 HC2    -9.592790   24.503838  -14.405392 H    1878 MOH     0.0372 ****
11573 HC3    -8.976757   22.986787  -15.089871 H    1878 MOH     0.0372 ****
11574 O1     -9.250421   24.532415  -16.396604 O    1878 MOH    -0.6497 ****
11575 HO1    -8.651709   24.124984  -17.025929 H    1878 MOH     0.4215 ****
11576 HC1   -14.395190   11.608091  -12.453777 H    1879 MOH     0.0372 ****
11577 C1    -13.813798   12.365392  -11.926982 C    1879 MOH     0.1166 ****
11578 HC2   -12.760134   12.121259  -12.064161 H    1879 MOH     0.0372 ****
11579 HC3   -14.043583   12.376006  -10.862080 H    1879 MOH     0.0372 ****
11580 O1    -13.941970   13.625654  -12.479233 O    1879 MOH    -0.6497 ****
11581 HO1   -13.143494   14.102080  -12.238109 H    1879 MOH     0.4215 ****
11582 HC1   -19.239736   22.965150   -7.371801 H    1880 MOH     0.0372 ****
11583 C1    -18.894480   22.122117   -7.969306 C    1880 MOH     0.1166 ****
11584 HC2   -18.154317   21.590170   -7.370386 H    1880 MOH     0.0372 ****
11585 HC3   -18.452807   22.507912   -8.887838 H    1880 MOH     0.0372 ****
11586 O1    -19.946990   21.204375   -8.303060 O    1880 MOH    -0.6497 ****
11587 HO1   -19.668130   20.691207   -9.064614 H    1880 MOH     0.4215 ****
11588 HC1   -14.174642   11.285575  -17.116439 H    1881 MOH     0.0372 ****
11589 C1    -14.207551   12.370699  -17.215434 C    1881 MOH     0.1166 ****
11590 HC2   -13.762414   12.839776  -16.337915 H    1881 MOH     0.0372 ****
11591 HC3   -15.245049   12.696481  -17.290387 H    1881 MOH     0.0372 ****
11592 O1    -13.521659   12.747920  -18.380746 O    1881 MOH    -0.6497 ****
11593 HO1   -13.420045   13.701180  -18.340441 H    1881 MOH     0.4215 ****
11594 HC1    -5.741286   20.102513  -15.933449 H    1882 MOH     0.0372 ****
11595 C1     -6.647149   20.427071  -16.444688 C    1882 MOH     0.1166 ****
11596 HC2    -7.532804   20.034336  -15.945470 H    1882 MOH     0.0372 ****
11597 HC3    -6.639643   20.078835  -17.477771 H    1882 MOH     0.0372 ****
11598 O1     -6.740102   21.819197  -16.430546 O    1882 MOH    -0.6497 ****
11599 HO1    -6.469902   22.104563  -15.554440 H    1882 MOH     0.4215 ****
11600 HC1   -13.207003   24.666321  -13.948601 H    1883 MOH     0.0372 ****
11601 C1    -12.543627   23.844517  -13.679193 C    1883 MOH     0.1166 ****
11602 HC2   -11.527491   24.230720  -13.601411 H    1883 MOH     0.0372 ****
11603 HC3   -12.557484   23.061905  -14.437919 H    1883 MOH     0.0372 ****
11604 O1    -12.921792   23.417489  -12.392259 O    1883 MOH    -0.6497 ****
11605 HO1   -12.868098   24.186629  -11.820916 H    1883 MOH     0.4215 ****
11606 HC1   -22.015059   19.368483   -6.691564 H    1884 MOH     0.0372 ****
11607 C1    -22.408234   19.803267   -5.773032 C    1884 MOH     0.1166 ****
11608 HC2   -22.592409   20.867979   -5.914454 H    1884 MOH     0.0372 ****
11609 HC3   -21.709063   19.659156   -4.949253 H    1884 MOH     0.0372 ****
11610 O1    -23.572750   19.142313   -5.444228 O    1884 MOH    -0.6497 ****
11611 HO1   -23.997102   19.591795   -4.709544 H    1884 MOH     0.4215 ****
11612 HC1   -18.041156   16.055140  -21.829306 H    1885 MOH     0.0372 ****
11613 C1    -18.777855   16.400926  -21.104521 C    1885 MOH     0.1166 ****
11614 HC2   -19.048633   15.593002  -20.423578 H    1885 MOH     0.0372 ****
11615 HC3   -19.686605   16.700580  -21.624952 H    1885 MOH     0.0372 ****
11616 O1    -18.337915   17.482376  -20.310440 O    1885 MOH    -0.6497 ****
11617 HO1   -17.390483   17.413790  -20.174676 H    1885 MOH     0.4215 ****
11618 HC1   -19.203940   13.804467  -16.067093 H    1886 MOH     0.0372 ****
11619 C1    -18.168751   14.108612  -16.223363 C    1886 MOH     0.1166 ****
11620 HC2   -17.579854   13.205975  -16.390948 H    1886 MOH     0.0372 ****
11621 HC3   -17.795783   14.665462  -15.364936 H    1886 MOH     0.0372 ****
11622 O1    -18.171060   14.840193  -17.399989 O    1886 MOH    -0.6497 ****
11623 HO1   -17.533666   15.549320  -17.290387 H    1886 MOH     0.4215 ****
11624 HC1    -6.141390   18.996569  -11.496354 H    1887 MOH     0.0372 ****
11625 C1     -5.757452   19.593428  -12.323669 C    1887 MOH     0.1166 ****
11626 HC2    -5.069828   18.976156  -12.902083 H    1887 MOH     0.0372 ****
11627 HC3    -5.256312   20.455240  -11.881728 H    1887 MOH     0.0372 ****
11628 O1     -6.822663   20.033111  -13.110679 O    1887 MOH    -0.6497 ****
11629 HO1    -7.352094   19.277035  -13.372309 H    1887 MOH     0.4215 ****
11630 HC1    -6.249355   24.453215  -12.760661 H    1888 MOH     0.0372 ****
11631 C1     -5.609073   23.577931  -12.651767 C    1888 MOH     0.1166 ****
11632 HC2    -5.759184   23.177031  -11.649089 H    1888 MOH     0.0372 ****
11633 HC3    -4.570420   23.890649  -12.757833 H    1888 MOH     0.0372 ****
11634 O1     -5.988392   22.636102  -13.655151 O    1888 MOH    -0.6497 ****
11635 HO1    -6.059406   21.762859  -13.262707 H    1888 MOH     0.4215 ****
11636 HC1    -8.113619   26.666737   -8.339830 H    1889 MOH     0.0372 ****
11637 C1     -7.255099   27.028445   -8.905515 C    1889 MOH     0.1166 ****
11638 HC2    -7.603241   27.547737   -9.797884 H    1889 MOH     0.0372 ****
11639 HC3    -6.625787   26.187862   -9.198964 H    1889 MOH     0.0372 ****
11640 O1     -6.505698   27.918018   -8.110020 O    1889 MOH    -0.6497 ****
11641 HO1    -6.338267   27.499564   -7.262199 H    1889 MOH     0.4215 ****
11642 HC1   -22.482712   19.874302   -1.473823 H    1890 MOH     0.0372 ****
11643 C1    -21.588397   19.431761   -1.034003 C    1890 MOH     0.1166 ****
11644 HC2   -21.522579   19.704879    0.018879 H    1890 MOH     0.0372 ****
11645 HC3   -20.698123   19.801634   -1.543119 H    1890 MOH     0.0372 ****
11646 O1    -21.639781   18.019222   -1.149968 O    1890 MOH    -0.6497 ****
11647 HO1   -20.734496   17.710995   -1.061580 H    1890 MOH     0.4215 ****
11648 HC1   -18.751875   23.617123   -3.671511 H    1891 MOH     0.0372 ****
11649 C1    -19.162371   22.660597   -3.348363 C    1891 MOH     0.1166 ****
11650 HC2   -18.383525   21.897989   -3.327150 H    1891 MOH     0.0372 ****
11651 HC3   -19.947567   22.381763   -4.050520 H    1891 MOH     0.0372 ****
11652 O1    -19.758196   22.805117   -2.092541 O    1891 MOH    -0.6497 ****
11653 HO1   -19.137545   23.254190   -1.514128 H    1891 MOH     0.4215 ****
11654 HC1   -14.440800    9.732190  -13.953550 H    1892 MOH     0.0372 ****
11655 C1    -13.603065    9.960401  -14.613281 C    1892 MOH     0.1166 ****
11656 HC2   -13.245685   10.961834  -14.377815 H    1892 MOH     0.0372 ****
11657 HC3   -13.953517    9.915494  -15.644243 H    1892 MOH     0.0372 ****
11658 O1    -12.522265    9.018572  -14.408927 O    1892 MOH    -0.6497 ****
11659 HO1   -11.689149    9.406816  -14.686820 H    1892 MOH     0.4215 ****
11660 HC1   -20.247212   20.587512  -14.338217 H    1893 MOH     0.0372 ****
11661 C1    -20.558981   21.630995  -14.373572 C    1893 MOH     0.1166 ****
11662 HC2   -19.753000   22.288274  -14.045474 H    1893 MOH     0.0372 ****
11663 HC3   -21.401912   21.754286  -13.694750 H    1893 MOH     0.0372 ****
11664 O1    -21.012201   21.977189  -15.667577 O    1893 MOH    -0.6497 ****
11665 HO1   -21.223511   22.912894  -15.637879 H    1893 MOH     0.4215 ****
11666 HC1   -24.521913   19.758360  -13.521508 H    1894 MOH     0.0372 ****
11667 C1    -23.750573   19.465238  -12.808745 C    1894 MOH     0.1166 ****
11668 HC2   -22.852794   19.208858  -13.371602 H    1894 MOH     0.0372 ****
11669 HC3   -24.080818   18.576889  -12.269929 H    1894 MOH     0.0372 ****
11670 O1    -23.490188   20.542605  -11.900113 O    1894 MOH    -0.6497 ****
11671 HO1   -24.156451   20.517702  -11.209269 H    1894 MOH     0.4215 ****
11672 HC1   -24.651240   20.369099   -7.638380 H    1895 MOH     0.0372 ****
11673 C1    -24.167998   20.218456   -8.603581 C    1895 MOH     0.1166 ****
11674 HC2   -23.712468   19.228862   -8.623380 H    1895 MOH     0.0372 ****
11675 HC3   -23.407627   20.987595   -8.742174 H    1895 MOH     0.0372 ****
11676 O1    -25.199145   20.267854   -9.589995 O    1895 MOH    -0.6497 ****
11677 HO1   -25.711832   21.068837   -9.459887 H    1895 MOH     0.4215 ****
11678 HC1    -2.796916   28.010527  -12.453777 H    1896 MOH     0.0372 ****
11679 C1     -2.215524   28.767828  -11.926982 C    1896 MOH     0.1166 ****
11680 HC2    -1.161860   28.523696  -12.064161 H    1896 MOH     0.0372 ****
11681 HC3    -2.445309   28.778443  -10.862080 H    1896 MOH     0.0372 ****
11682 O1     -2.343696   30.028091  -12.479233 O    1896 MOH    -0.6497 ****
11683 HO1    -1.545220   30.504516  -12.238109 H    1896 MOH     0.4215 ****
11684 HC1    -2.576368   27.688011  -17.116439 H    1897 MOH     0.0372 ****
11685 C1     -2.609277   28.773135  -17.215434 C    1897 MOH     0.1166 ****
11686 HC2    -2.164140   29.242213  -16.337915 H    1897 MOH     0.0372 ****
11687 HC3    -3.646775   29.098917  -17.290387 H    1897 MOH     0.0372 ****
11688 O1     -1.923385   29.150357  -18.380746 O    1897 MOH    -0.6497 ****
11689 HO1    -1.821771   30.103616  -18.340441 H    1897 MOH     0.4215 ****
11690 HC1    -2.842526   26.134627  -13.953550 H    1898 MOH     0.0372 ****
11691 C1     -2.004791   26.362837  -14.613281 C    1898 MOH     0.1166 ****
11692 HC2    -1.647411   27.364270  -14.377815 H    1898 MOH     0.0372 ****
11693 HC3    -2.355243   26.317930  -15.644243 H    1898 MOH     0.0372 ****
11694 O1     -0.923991   25.421009  -14.408927 O    1898 MOH    -0.6497 ****
11695 HO1    -0.090875   25.809253  -14.686820 H    1898 MOH     0.4215 ****
11696 HC1   -22.914455   -8.003749  -17.676326 H    1899 MOH     0.0372 ****
11697 C1    -23.625750   -8.829635  -17.686933 C    1899 MOH     0.1166 ****
11698 HC2   -23.263752   -9.560808  -18.410303 H    1899 MOH     0.0372 ****
11699 HC3   -24.614751   -8.457313  -17.957048 H    1899 MOH     0.0372 ****
11700 O1    -23.689259   -9.403224  -16.402120 O    1899 MOH    -0.6497 ****
11701 HO1   -23.965232   -8.719408  -15.787644 H    1899 MOH     0.4215 ****
11702 HC1   -27.130266  -10.191143  -17.243577 H    1900 MOH     0.0372 ****
11703 C1    -26.692635  -11.094596  -17.668548 C    1900 MOH     0.1166 ****
11704 HC2   -26.448993  -10.899454  -18.712238 H    1900 MOH     0.0372 ****
11705 HC3   -27.398157  -11.920891  -17.575210 H    1900 MOH     0.0372 ****
11706 O1    -25.556410  -11.392209  -16.921136 O    1900 MOH    -0.6497 ****
11707 HO1   -24.928830  -10.666344  -16.969219 H    1900 MOH     0.4215 ****
11708 HC1   -15.306826   -3.162904  -21.757746 H    1901 MOH     0.0372 ****
11709 C1    -15.245626   -2.383150  -20.999728 C    1901 MOH     0.1166 ****
11710 HC2   -14.885360   -2.828957  -20.072004 H    1901 MOH     0.0372 ****
11711 HC3   -16.238669   -1.957755  -20.854064 H    1901 MOH     0.0372 ****
11712 O1    -14.374405   -1.360488  -21.427528 O    1901 MOH    -0.6497 ****
11713 HO1   -13.487595   -1.720563  -21.493996 H    1901 MOH     0.4215 ****
11714 HC1    -9.048349    1.586249  -27.538344 H    1902 MOH     0.0372 ****
11715 C1     -8.614759    1.779350  -26.557587 C    1902 MOH     0.1166 ****
11716 HC2    -8.328970    2.830181  -26.506676 H    1902 MOH     0.0372 ****
11717 HC3    -7.726794    1.160037  -26.431015 H    1902 MOH     0.0372 ****
11718 O1     -9.569119    1.464591  -25.549960 O    1902 MOH    -0.6497 ****
11719 HO1    -9.368201    0.572976  -25.257218 H    1902 MOH     0.4215 ****
11720 HC1    -4.978607   -0.025107  -32.153630 H    1903 MOH     0.0372 ****
11721 C1     -5.173174    0.716271  -31.378641 C    1903 MOH     0.1166 ****
11722 HC2    -6.237230    0.758321  -31.146003 H    1903 MOH     0.0372 ****
11723 HC3    -4.871797    1.704641  -31.725831 H    1903 MOH     0.0372 ****
11724 O1     -4.503447    0.385999  -30.167367 O    1903 MOH    -0.6497 ****
11725 HO1    -4.721108   -0.508473  -29.895131 H    1903 MOH     0.4215 ****
11726 HC1   -20.864977    4.687711  -25.686432 H    1904 MOH     0.0372 ****
11727 C1    -20.261068    5.239254  -24.965890 C    1904 MOH     0.1166 ****
11728 HC2   -19.449314    4.604020  -24.612337 H    1904 MOH     0.0372 ****
11729 HC3   -20.909433    5.525028  -24.137161 H    1904 MOH     0.0372 ****
11730 O1    -19.756464    6.363162  -25.621378 O    1904 MOH    -0.6497 ****
11731 HO1   -18.943555    6.624849  -25.182265 H    1904 MOH     0.4215 ****
11732 HC1   -22.803142   -0.633806  -21.301663 H    1905 MOH     0.0372 ****
11733 C1    -23.823319   -0.926520  -21.053468 C    1905 MOH     0.1166 ****
11734 HC2   -23.984400   -0.868957  -19.977959 H    1905 MOH     0.0372 ****
11735 HC3   -24.031743   -1.948773  -21.370252 H    1905 MOH     0.0372 ****
11736 O1    -24.709552   -0.034089  -21.654509 O    1905 MOH    -0.6497 ****
11737 HO1   -24.258064    0.342316  -22.413942 H    1905 MOH     0.4215 ****
11738 HC1   -10.095662    4.339067  -30.624866 H    1906 MOH     0.0372 ****
11739 C1    -10.047165    3.251493  -30.675777 C    1906 MOH     0.1166 ****
11740 HC2   -10.425329    2.896726  -31.633907 H    1906 MOH     0.0372 ****
11741 HC3   -10.653960    2.804870  -29.888060 H    1906 MOH     0.0372 ****
11742 O1     -8.710599    2.817117  -30.602238 O    1906 MOH    -0.6497 ****
11743 HO1    -8.742930    1.857734  -30.581025 H    1906 MOH     0.4215 ****
11744 HC1    -5.299613    2.004703  -28.372023 H    1907 MOH     0.0372 ****
11745 C1     -5.217052    2.944491  -27.826137 C    1907 MOH     0.1166 ****
11746 HC2    -6.043818    3.600137  -28.099080 H    1907 MOH     0.0372 ****
11747 HC3    -4.259805    3.406628  -28.070796 H    1907 MOH     0.0372 ****
11748 O1     -5.258044    2.586457  -26.484755 O    1907 MOH    -0.6497 ****
11749 HO1    -5.034032    3.329469  -25.920484 H    1907 MOH     0.4215 ****
11750 HC1   -17.317737   -4.025124  -19.678853 H    1908 MOH     0.0372 ****
11751 C1    -17.018092   -5.072281  -19.693702 C    1908 MOH     0.1166 ****
11752 HC2   -16.384161   -5.260892  -20.560615 H    1908 MOH     0.0372 ****
11753 HC3   -17.885849   -5.726295  -19.772898 H    1908 MOH     0.0372 ****
11754 O1    -16.313147   -5.383366  -18.500106 O    1908 MOH    -0.6497 ****
11755 HO1   -15.878980   -6.231706  -18.618899 H    1908 MOH     0.4215 ****
11756 HC1   -13.880770    5.126986  -25.812297 H    1909 MOH     0.0372 ****
11757 C1    -13.398106    4.161071  -25.959375 C    1909 MOH     0.1166 ****
11758 HC2   -14.171178    3.407036  -26.107160 H    1909 MOH     0.0372 ****
11759 HC3   -12.833457    3.918571  -25.059935 H    1909 MOH     0.0372 ****
11760 O1    -12.489934    4.188831  -27.082261 O    1909 MOH    -0.6497 ****
11761 HO1   -11.778638    4.793039  -26.853158 H    1909 MOH     0.4215 ****
11762 HC1   -11.316181    8.398688  -17.676326 H    1910 MOH     0.0372 ****
11763 C1    -12.027476    7.572802  -17.686933 C    1910 MOH     0.1166 ****
11764 HC2   -11.665477    6.841629  -18.410303 H    1910 MOH     0.0372 ****
11765 HC3   -13.016477    7.945124  -17.957048 H    1910 MOH     0.0372 ****
11766 O1    -12.090985    6.999213  -16.402120 O    1910 MOH    -0.6497 ****
11767 HO1   -12.366958    7.683029  -15.787644 H    1910 MOH     0.4215 ****
11768 HC1   -10.588719   -2.860392  -28.038976 H    1911 MOH     0.0372 ****
11769 C1    -10.605462   -3.867540  -28.456876 C    1911 MOH     0.1166 ****
11770 HC2   -10.103745   -4.526045  -27.749062 H    1911 MOH     0.0372 ****
11771 HC3   -10.054093   -3.896118  -29.397328 H    1911 MOH     0.0372 ****
11772 O1    -11.948379   -4.303141  -28.606076 O    1911 MOH    -0.6497 ****
11773 HO1   -12.440281   -4.042271  -27.823308 H    1911 MOH     0.4215 ****
11774 HC1   -15.788913   -3.822633  -25.081148 H    1912 MOH     0.0372 ****
11775 C1    -15.034894   -4.576259  -25.308837 C    1912 MOH     0.1166 ****
11776 HC2   -15.521023   -5.465832  -25.708352 H    1912 MOH     0.0372 ****
11777 HC3   -14.545878   -4.865707  -24.378991 H    1912 MOH     0.0372 ****
11778 O1    -14.100741   -4.034106  -26.253531 O    1912 MOH    -0.6497 ****
11779 HO1   -13.884234   -3.136368  -25.994023 H    1912 MOH     0.4215 ****
11780 HC1   -10.501539    5.745482  -33.370561 H    1913 MOH     0.0372 ****
11781 C1    -10.081228    6.628931  -32.889729 C    1913 MOH     0.1166 ****
11782 HC2    -9.827771    7.370719  -33.647040 H    1913 MOH     0.0372 ****
11783 HC3    -9.194418    6.346015  -32.323336 H    1913 MOH     0.0372 ****
11784 O1    -11.086395    7.125361  -32.066656 O    1913 MOH    -0.6497 ****
11785 HO1   -10.730170    7.321729  -31.197622 H    1913 MOH     0.4215 ****
11786 HC1   -16.150334    8.053310  -20.794667 H    1914 MOH     0.0372 ****
11787 C1    -16.193058    8.927369  -21.444498 C    1914 MOH     0.1166 ****
11788 HC2   -15.392273    9.627515  -21.206203 H    1914 MOH     0.0372 ****
11789 HC3   -17.132407    9.443395  -21.249337 H    1914 MOH     0.0372 ****
11790 O1    -16.192481    8.573010  -22.836084 O    1914 MOH    -0.6497 ****
11791 HO1   -16.083362    9.365420  -23.367122 H    1914 MOH     0.4215 ****
11792 HC1   -11.041939   -3.792831  -20.266458 H    1915 MOH     0.0372 ****
11793 C1    -10.966884   -2.750981  -20.576171 C    1915 MOH     0.1166 ****
11794 HC2    -9.928231   -2.526445  -20.819416 H    1915 MOH     0.0372 ****
11795 HC3   -11.328882   -2.149632  -19.741078 H    1915 MOH     0.0372 ****
11796 O1    -11.854848   -2.593397  -21.652388 O    1915 MOH    -0.6497 ****
11797 HO1   -11.487654   -3.113914  -22.370101 H    1915 MOH     0.4215 ****
11798 HC1   -21.317042   -7.705482  -19.717743 H    1916 MOH     0.0372 ****
11799 C1    -20.324577   -7.684662  -20.168170 C    1916 MOH     0.1166 ****
11800 HC2   -19.801497   -6.773452  -19.878257 H    1916 MOH     0.0372 ****
11801 HC3   -20.384621   -7.740184  -21.254286 H    1916 MOH     0.0372 ****
11802 O1    -19.589610   -8.749373  -19.719865 O    1916 MOH    -0.6497 ****
11803 HO1   -20.036479   -9.545458  -20.015435 H    1916 MOH     0.4215 ****
11804 HC1   -14.141733   -7.102500  -24.191608 H    1917 MOH     0.0372 ****
11805 C1    -13.890585   -7.623016  -23.267419 C    1917 MOH     0.1166 ****
11806 HC2   -14.557425   -8.476664  -23.146504 H    1917 MOH     0.0372 ****
11807 HC3   -14.013561   -6.953081  -22.416770 H    1917 MOH     0.0372 ****
11808 O1    -12.550555   -8.053718  -23.364293 O    1917 MOH    -0.6497 ****
11809 HO1   -12.360607   -8.609344  -22.605567 H    1917 MOH     0.4215 ****
11810 HC1   -22.615503   -0.874264  -24.970840 H    1918 MOH     0.0372 ****
11811 C1    -23.625288   -0.474997  -24.878916 C    1918 MOH     0.1166 ****
11812 HC2   -24.237857   -1.216376  -24.365556 H    1918 MOH     0.0372 ****
11813 HC3   -24.026547   -0.283120  -25.874522 H    1918 MOH     0.0372 ****
11814 O1    -23.557161    0.713822  -24.116655 O    1918 MOH    -0.6497 ****
11815 HO1   -23.222875    1.407028  -24.690826 H    1918 MOH     0.4215 ****
11816 HC1   -20.185435    1.799354  -20.286257 H    1919 MOH     0.0372 ****
11817 C1    -19.577486    2.670148  -20.534452 C    1919 MOH     0.1166 ****
11818 HC2   -18.527863    2.400704  -20.649003 H    1919 MOH     0.0372 ****
11819 HC3   -19.634066    3.392339  -19.719158 H    1919 MOH     0.0372 ****
11820 O1    -19.972393    3.232306  -21.744312 O    1919 MOH    -0.6497 ****
11821 HO1   -19.690646    2.633814  -22.440105 H    1919 MOH     0.4215 ****
11822 HC1   -11.730718   -0.232906  -23.714311 H    1920 MOH     0.0372 ****
11823 C1    -12.353102    0.661566  -23.723503 C    1920 MOH     0.1166 ****
11824 HC2   -11.909119    1.448669  -23.113977 H    1920 MOH     0.0372 ****
11825 HC3   -13.324782    0.383549  -23.314089 H    1920 MOH     0.0372 ****
11826 O1    -12.532658    1.114314  -25.045086 O    1920 MOH    -0.6497 ****
11827 HO1   -11.675292    1.389881  -25.378133 H    1920 MOH     0.4215 ****
11828 HC1   -16.101837   -0.053277  -25.873815 H    1921 MOH     0.0372 ****
11829 C1    -15.648040    0.826090  -25.417024 C    1921 MOH     0.1166 ****
11830 HC2   -14.810882    1.142891  -26.039278 H    1921 MOH     0.0372 ****
11831 HC3   -15.344353    0.577059  -24.400205 H    1921 MOH     0.0372 ****
11832 O1    -16.598358    1.823849  -25.452379 O    1921 MOH    -0.6497 ****
11833 HO1   -16.926293    1.879371  -26.353234 H    1921 MOH     0.4215 ****
11834 HC1    -8.738889    3.265782  -20.496975 H    1922 MOH     0.0372 ****
11835 C1     -8.991768    4.130452  -19.883206 C    1922 MOH     0.1166 ****
11836 HC2    -8.184055    4.313755  -19.175393 H    1922 MOH     0.0372 ****
11837 HC3    -9.909755    3.897750  -19.344391 H    1922 MOH     0.0372 ****
11838 O1     -9.184026    5.238846  -20.739513 O    1922 MOH    -0.6497 ****
11839 HO1    -9.869341    4.967769  -21.354696 H    1922 MOH     0.4215 ****
11840 HC1   -12.479541   -3.993689  -24.031095 H    1923 MOH     0.0372 ****
11841 C1    -11.656817   -4.684445  -24.216357 C    1923 MOH     0.1166 ****
11842 HC2   -11.381421   -4.563195  -25.263582 H    1923 MOH     0.0372 ****
11843 HC3   -11.965122   -5.724254  -24.109584 H    1923 MOH     0.0372 ****
11844 O1    -10.566780   -4.373768  -23.331766 O    1923 MOH    -0.6497 ****
11845 HO1    -9.955943   -5.114331  -23.319038 H    1923 MOH     0.4215 ****
11846 HC1    -7.645387   -3.035939  -25.095998 H    1924 MOH     0.0372 ****
11847 C1     -8.476772   -2.352531  -25.265703 C    1924 MOH     0.1166 ****
11848 HC2    -9.398800   -2.812627  -24.908614 H    1924 MOH     0.0372 ****
11849 HC3    -8.547209   -2.164328  -26.336970 H    1924 MOH     0.0372 ****
11850 O1     -8.148837   -1.131869  -24.613751 O    1924 MOH    -0.6497 ****
11851 HO1    -7.535691   -1.329052  -23.901694 H    1924 MOH     0.4215 ****
11852 HC1   -15.138817   -0.806495  -16.612838 H    1925 MOH     0.0372 ****
11853 C1    -16.030246   -0.179833  -16.644657 C    1925 MOH     0.1166 ****
11854 HC2   -16.918788   -0.810577  -16.684962 H    1925 MOH     0.0372 ****
11855 HC3   -16.021008    0.438254  -17.542683 H    1925 MOH     0.0372 ****
11856 O1    -16.019853    0.667690  -15.523186 O    1925 MOH    -0.6497 ****
11857 HO1   -15.264102    1.247811  -15.639859 H    1925 MOH     0.4215 ****
11858 HC1    -7.885565   -0.209636  -29.073473 H    1926 MOH     0.0372 ****
11859 C1     -8.895351   -0.530519  -29.329446 C    1926 MOH     0.1166 ****
11860 HC2    -9.592790   -0.099817  -28.610318 H    1926 MOH     0.0372 ****
11861 HC3    -8.976757   -1.616868  -29.294798 H    1926 MOH     0.0372 ****
11862 O1     -9.250421   -0.071240  -30.601531 O    1926 MOH    -0.6497 ****
11863 HO1    -8.651709   -0.478671  -31.230856 H    1926 MOH     0.4215 ****
11864 HC1   -13.481821    0.455401  -18.026344 H    1927 MOH     0.0372 ****
11865 C1    -13.257232    1.521337  -17.976139 C    1927 MOH     0.1166 ****
11866 HC2   -13.616344    2.069206  -18.847295 H    1927 MOH     0.0372 ****
11867 HC3   -12.171236    1.567877  -18.048264 H    1927 MOH     0.0372 ****
11868 O1    -13.618076    2.119421  -16.709711 O    1927 MOH    -0.6497 ****
11869 HO1   -13.690245    3.068190  -16.835576 H    1927 MOH     0.4215 ****
11870 HC1   -19.239736   -1.638505  -21.576727 H    1928 MOH     0.0372 ****
11871 C1    -18.894480   -2.481537  -22.174232 C    1928 MOH     0.1166 ****
11872 HC2   -18.154317   -3.013485  -21.575313 H    1928 MOH     0.0372 ****
11873 HC3   -18.452807   -2.095743  -23.092764 H    1928 MOH     0.0372 ****
11874 O1    -19.946990   -3.399280  -22.507987 O    1928 MOH    -0.6497 ****
11875 HO1   -19.668130   -3.912448  -23.269541 H    1928 MOH     0.4215 ****
11876 HC1   -12.082324    6.898784  -27.799267 H    1929 MOH     0.0372 ****
11877 C1    -12.574804    7.335201  -28.668301 C    1929 MOH     0.1166 ****
11878 HC2   -13.517040    7.822649  -28.417985 H    1929 MOH     0.0372 ****
11879 HC3   -12.827106    6.500741  -29.323082 H    1929 MOH     0.0372 ****
11880 O1    -11.737069    8.260292  -29.368337 O    1929 MOH    -0.6497 ****
11881 HO1   -12.278046    8.960029  -29.740275 H    1929 MOH     0.4215 ****
11882 HC1   -13.207003    0.062666  -28.153527 H    1930 MOH     0.0372 ****
11883 C1    -12.543627   -0.759138  -27.884120 C    1930 MOH     0.1166 ****
11884 HC2   -11.527491   -0.372935  -27.806338 H    1930 MOH     0.0372 ****
11885 HC3   -12.557484   -1.541750  -28.642845 H    1930 MOH     0.0372 ****
11886 O1    -12.921792   -1.186166  -26.597185 O    1930 MOH    -0.6497 ****
11887 HO1   -12.868098   -0.417026  -26.025843 H    1930 MOH     0.4215 ****
11888 HC1    -9.427090    6.261916  -24.050187 H    1931 MOH     0.0372 ****
11889 C1     -9.766572    5.516047  -24.769314 C    1931 MOH     0.1166 ****
11890 HC2   -10.272909    4.678729  -24.287775 H    1931 MOH     0.0372 ****
11891 HC3    -8.879762    5.119229  -25.264289 H    1931 MOH     0.0372 ****
11892 O1    -10.607772    6.136584  -25.723908 O    1931 MOH    -0.6497 ****
11893 HO1   -10.078342    6.821625  -26.139687 H    1931 MOH     0.4215 ****
11894 HC1   -16.058536    3.758129  -29.887353 H    1932 MOH     0.0372 ****
11895 C1    -15.402088    4.033697  -29.062160 C    1932 MOH     0.1166 ****
11896 HC2   -15.948839    3.997771  -28.118879 H    1932 MOH     0.0372 ****
11897 HC3   -15.055678    5.056359  -29.212773 H    1932 MOH     0.0372 ****
11898 O1    -14.283184    3.161679  -28.997106 O    1932 MOH    -0.6497 ****
11899 HO1   -13.678120    3.488277  -28.326769 H    1932 MOH     0.4215 ****
11900 HC1   -12.282088    8.472989  -22.119785 H    1933 MOH     0.0372 ****
11901 C1    -12.593857    8.054126  -21.162363 C    1933 MOH     0.1166 ****
11902 HC2   -13.120977    8.800404  -20.569807 H    1933 MOH     0.0372 ****
11903 HC3   -11.701273    7.720587  -20.634154 H    1933 MOH     0.0372 ****
11904 O1    -13.408498    6.940017  -21.389344 O    1933 MOH    -0.6497 ****
11905 HO1   -14.094390    7.181291  -22.015133 H    1933 MOH     0.4215 ****
11906 HC1   -17.444754    5.397246  -23.327524 H    1934 MOH     0.0372 ****
11907 C1    -16.862785    5.639746  -24.217064 C    1934 MOH     0.1166 ****
11908 HC2   -16.899158    4.817942  -24.931949 H    1934 MOH     0.0372 ****
11909 HC3   -15.835678    5.783041  -23.879774 H    1934 MOH     0.0372 ****
11910 O1    -17.328706    6.884087  -24.748808 O    1934 MOH    -0.6497 ****
11911 HO1   -16.913014    7.561371  -24.210700 H    1934 MOH     0.4215 ****
11912 HC1   -19.950454    0.830989  -25.656026 H    1935 MOH     0.0372 ****
11913 C1    -19.787641    0.606861  -24.601730 C    1935 MOH     0.1166 ****
11914 HC2   -19.220106   -0.319863  -24.509806 H    1935 MOH     0.0372 ****
11915 HC3   -20.771446    0.489285  -24.147767 H    1935 MOH     0.0372 ****
11916 O1    -19.094821    1.683412  -24.009882 O    1935 MOH    -0.6497 ****
11917 HO1   -18.256508    1.774043  -24.468087 H    1935 MOH     0.4215 ****
11918 HC1   -22.015058   -5.235172  -20.896490 H    1936 MOH     0.0372 ****
11919 C1    -22.408234   -4.800388  -19.977959 C    1936 MOH     0.1166 ****
11920 HC2   -22.592409   -3.735676  -20.119380 H    1936 MOH     0.0372 ****
11921 HC3   -21.709063   -4.944499  -19.154179 H    1936 MOH     0.0372 ****
11922 O1    -23.572749   -5.461342  -19.649154 O    1936 MOH    -0.6497 ****
11923 HO1   -23.997102   -5.011860  -18.914470 H    1936 MOH     0.4215 ****
11924 HC1    -6.141390   -5.607086  -25.701281 H    1937 MOH     0.0372 ****
11925 C1     -5.757452   -5.010227  -26.528596 C    1937 MOH     0.1166 ****
11926 HC2    -5.069828   -5.627499  -27.107009 H    1937 MOH     0.0372 ****
11927 HC3    -5.256312   -4.148415  -26.086654 H    1937 MOH     0.0372 ****
11928 O1     -6.822663   -4.570544  -27.315606 O    1937 MOH    -0.6497 ****
11929 HO1    -7.352094   -5.326620  -27.577235 H    1937 MOH     0.4215 ****
11930 HC1   -15.675175    3.389073  -21.100844 H    1938 MOH     0.0372 ****
11931 C1    -15.611667    2.466024  -21.677136 C    1938 MOH     0.1166 ****
11932 HC2   -14.579942    2.261900  -21.962807 H    1938 MOH     0.0372 ****
11933 HC3   -16.228854    2.577884  -22.568091 H    1938 MOH     0.0372 ****
11934 O1    -16.129550    1.412743  -20.912047 O    1938 MOH    -0.6497 ****
11935 HO1   -15.879557    0.588082  -21.336311 H    1938 MOH     0.4215 ****
11936 HC1    -6.249355   -0.150440  -26.965588 H    1939 MOH     0.0372 ****
11937 C1     -5.609073   -1.025724  -26.856693 C    1939 MOH     0.1166 ****
11938 HC2    -5.759184   -1.426624  -25.854016 H    1939 MOH     0.0372 ****
11939 HC3    -4.570420   -0.713006  -26.962759 H    1939 MOH     0.0372 ****
11940 O1     -5.988392   -1.967553  -27.860078 O    1939 MOH    -0.6497 ****
11941 HO1    -6.059406   -2.840796  -27.467634 H    1939 MOH     0.4215 ****
11942 HC1    -8.113619    2.063083  -22.544756 H    1940 MOH     0.0372 ****
11943 C1     -7.255099    2.424791  -23.110442 C    1940 MOH     0.1166 ****
11944 HC2    -7.603241    2.944082  -24.002810 H    1940 MOH     0.0372 ****
11945 HC3    -6.625787    1.584207  -23.403891 H    1940 MOH     0.0372 ****
11946 O1     -6.505698    3.314364  -22.314947 O    1940 MOH    -0.6497 ****
11947 HO1    -6.338267    2.895909  -21.467126 H    1940 MOH     0.4215 ****
11948 HC1    -7.314566    3.384174  -32.476778 H    1941 MOH     0.0372 ****
11949 C1     -7.761435    3.798138  -33.380461 C    1941 MOH     0.1166 ****
11950 HC2    -8.789118    4.116980  -33.208634 H    1941 MOH     0.0372 ****
11951 HC3    -7.730835    3.025732  -34.149793 H    1941 MOH     0.0372 ****
11952 O1     -6.950835    4.862441  -33.768662 O    1941 MOH    -0.6497 ****
11953 HO1    -6.768970    5.408677  -33.000744 H    1941 MOH     0.4215 ****
11954 HC1   -22.482712   -4.729352  -15.678750 H    1942 MOH     0.0372 ****
11955 C1    -21.588397   -5.171894  -15.238929 C    1942 MOH     0.1166 ****
11956 HC2   -21.522579   -4.898775  -14.186047 H    1942 MOH     0.0372 ****
11957 HC3   -20.698122   -4.802021  -15.748046 H    1942 MOH     0.0372 ****
11958 O1    -21.639781   -6.584433  -15.354895 O    1942 MOH    -0.6497 ****
11959 HO1   -20.734496   -6.892660  -15.266506 H    1942 MOH     0.4215 ****
11960 HC1   -23.078538    3.650352  -22.092208 H    1943 MOH     0.0372 ****
11961 C1    -23.144933    3.389890  -21.035791 C    1943 MOH     0.1166 ****
11962 HC2   -23.036968    2.311706  -20.912047 H    1943 MOH     0.0372 ****
11963 HC3   -24.128738    3.704649  -20.687187 H    1943 MOH     0.0372 ****
11964 O1    -22.161128    4.108815  -20.312420 O    1943 MOH    -0.6497 ****
11965 HO1   -21.338404    3.999812  -20.795374 H    1943 MOH     0.4215 ****
11966 HC1   -15.531992    6.211293  -17.243577 H    1944 MOH     0.0372 ****
11967 C1    -15.094361    5.307840  -17.668548 C    1944 MOH     0.1166 ****
11968 HC2   -14.850719    5.502983  -18.712238 H    1944 MOH     0.0372 ****
11969 HC3   -15.799883    4.481545  -17.575210 H    1944 MOH     0.0372 ****
11970 O1    -13.958135    5.010227  -16.921136 O    1944 MOH    -0.6497 ****
11971 HO1   -13.330556    5.736092  -16.969219 H    1944 MOH     0.4215 ****
11972 HC1   -18.751875   -0.986532  -17.876437 H    1945 MOH     0.0372 ****
11973 C1    -19.162371   -1.943058  -17.553290 C    1945 MOH     0.1166 ****
11974 HC2   -18.383525   -2.705666  -17.532076 H    1945 MOH     0.0372 ****
11975 HC3   -19.947567   -2.221891  -18.255447 H    1945 MOH     0.0372 ****
11976 O1    -19.758196   -1.798538  -16.297468 O    1945 MOH    -0.6497 ****
11977 HO1   -19.137545   -1.349465  -15.719055 H    1945 MOH     0.4215 ****
11978 HC1   -13.551103    3.997363  -21.045690 H    1946 MOH     0.0372 ****
11979 C1    -12.625611    4.297017  -20.552129 C    1946 MOH     0.1166 ****
11980 HC2   -12.181629    3.442962  -20.040184 H    1946 MOH     0.0372 ****
11981 HC3   -12.871562    5.049011  -19.802596 H    1946 MOH     0.0372 ****
11982 O1    -11.743420    4.796305  -21.578141 O    1946 MOH    -0.6497 ****
11983 HO1   -11.933945    5.734459  -21.653095 H    1946 MOH     0.4215 ****
11984 HC1   -15.134198    7.866332  -25.697746 H    1947 MOH     0.0372 ****
11985 C1    -14.188498    8.209261  -25.277724 C    1947 MOH     0.1166 ****
11986 HC2   -14.302236    9.183749  -24.801841 H    1947 MOH     0.0372 ****
11987 HC3   -13.458727    8.322754  -26.079583 H    1947 MOH     0.0372 ****
11988 O1    -13.746825    7.287028  -24.305452 O    1947 MOH    -0.6497 ****
11989 HO1   -12.915441    6.898784  -24.587588 H    1947 MOH     0.4215 ****
11990 HC1   -15.817896   12.000499  -26.264138 H    1948 MOH     0.0372 ****
11991 C1    -16.618681   11.606540  -25.638349 C    1948 MOH     0.1166 ****
11992 HC2   -17.184484   10.876183  -26.217469 H    1948 MOH     0.0372 ****
11993 HC3   -17.291294   12.383436  -25.277017 H    1948 MOH     0.0372 ****
11994 O1    -16.121582   10.865569  -24.593952 O    1948 MOH    -0.6497 ****
11995 HO1   -15.577141   11.461611  -24.074936 H    1948 MOH     0.4215 ****
11996 HC1    -3.708552   13.239533  -21.757746 H    1949 MOH     0.0372 ****
11997 C1     -3.647352   14.019287  -20.999728 C    1949 MOH     0.1166 ****
11998 HC2    -3.287086   13.573480  -20.072004 H    1949 MOH     0.0372 ****
11999 HC3    -4.640395   14.444682  -20.854064 H    1949 MOH     0.0372 ****
12000 O1     -2.776131   15.041949  -21.427528 O    1949 MOH    -0.6497 ****
12001 HO1    -1.889321   14.681874  -21.493996 H    1949 MOH     0.4215 ****
12002 HC1    -1.456885    7.606931  -28.533951 H    1950 MOH     0.0372 ****
12003 C1     -2.305590    8.041715  -28.005742 C    1950 MOH     0.1166 ****
12004 HC2    -2.441845    9.068868  -28.343739 H    1950 MOH     0.0372 ****
12005 HC3    -2.141045    8.029468  -26.928111 H    1950 MOH     0.0372 ****
12006 O1     -3.471260    7.343611  -28.339496 O    1950 MOH    -0.6497 ****
12007 HO1    -3.444125    6.543036  -27.809873 H    1950 MOH     0.4215 ****
12008 HC1    -9.266703   21.090147  -25.686432 H    1951 MOH     0.0372 ****
12009 C1     -8.662794   21.641691  -24.965890 C    1951 MOH     0.1166 ****
12010 HC2    -7.851040   21.006456  -24.612337 H    1951 MOH     0.0372 ****
12011 HC3    -9.311159   21.927465  -24.137161 H    1951 MOH     0.0372 ****
12012 O1     -8.158190   22.765598  -25.621378 O    1951 MOH    -0.6497 ****
12013 HO1    -7.345281   23.027285  -25.182265 H    1951 MOH     0.4215 ****
12014 HC1   -11.204867   15.768631  -21.301663 H    1952 MOH     0.0372 ****
12015 C1    -12.225045   15.475917  -21.053468 C    1952 MOH     0.1166 ****
12016 HC2   -12.386126   15.533480  -19.977959 H    1952 MOH     0.0372 ****
12017 HC3   -12.433469   14.453663  -21.370252 H    1952 MOH     0.0372 ****
12018 O1    -13.111278   16.368348  -21.654509 O    1952 MOH    -0.6497 ****
12019 HO1   -12.659790   16.744753  -22.413942 H    1952 MOH     0.4215 ****
12020 HC1    -5.719463   12.377312  -19.678853 H    1953 MOH     0.0372 ****
12021 C1     -5.419818   11.330155  -19.693702 C    1953 MOH     0.1166 ****
12022 HC2    -4.785887   11.141545  -20.560615 H    1953 MOH     0.0372 ****
12023 HC3    -6.287575   10.676142  -19.772898 H    1953 MOH     0.0372 ****
12024 O1     -4.714873   11.019070  -18.500106 O    1953 MOH    -0.6497 ****
12025 HO1    -4.280706   10.170730  -18.618899 H    1953 MOH     0.4215 ****
12026 HC1    -5.045695   13.493055  -27.102767 H    1954 MOH     0.0372 ****
12027 C1     -5.185991   13.338737  -28.171912 C    1954 MOH     0.1166 ****
12028 HC2    -5.382290   14.293222  -28.661230 H    1954 MOH     0.0372 ****
12029 HC3    -6.020262   12.659820  -28.347982 H    1954 MOH     0.0372 ****
12030 O1     -4.010506   12.784336  -28.723455 O    1954 MOH    -0.6497 ****
12031 HO1    -3.363873   12.683499  -28.021298 H    1954 MOH     0.4215 ****
12032 HC1     1.416010    7.404032  -26.857401 H    1955 MOH     0.0372 ****
12033 C1      1.249733    7.490989  -25.783305 C    1955 MOH     0.1166 ****
12034 HC2     1.321901    8.547127  -25.523797 H    1955 MOH     0.0372 ****
12035 HC3     2.036661    6.936996  -25.270653 H    1955 MOH     0.0372 ****
12036 O1     -0.075864    6.972105  -25.549253 O    1955 MOH    -0.6497 ****
12037 HO1    -0.387055    7.320749  -24.710624 H    1955 MOH     0.4215 ****
12038 HC1     0.282094   24.801124  -17.676326 H    1956 MOH     0.0372 ****
12039 C1     -0.429202   23.975238  -17.686933 C    1956 MOH     0.1166 ****
12040 HC2    -0.067203   23.244065  -18.410303 H    1956 MOH     0.0372 ****
12041 HC3    -1.418203   24.347560  -17.957048 H    1956 MOH     0.0372 ****
12042 O1     -0.492711   23.401649  -16.402120 O    1956 MOH    -0.6497 ****
12043 HO1    -0.768684   24.085465  -15.787644 H    1956 MOH     0.4215 ****
12044 HC1   -15.210524   15.973980  -23.658450 H    1957 MOH     0.0372 ****
12045 C1    -15.601967   15.204840  -24.323130 C    1957 MOH     0.1166 ****
12046 HC2   -15.102559   15.238725  -25.291159 H    1957 MOH     0.0372 ****
12047 HC3   -16.673529   15.367323  -24.447581 H    1957 MOH     0.0372 ****
12048 O1    -15.461094   13.938046  -23.738353 O    1957 MOH    -0.6497 ****
12049 HO1   -15.907385   13.937637  -22.889117 H    1957 MOH     0.4215 ****
12050 HC1    -5.375362    9.004773  -26.500312 H    1958 MOH     0.0372 ****
12051 C1     -5.561268    9.590609  -27.400459 C    1958 MOH     0.1166 ****
12052 HC2    -5.543371    8.966806  -28.294242 H    1958 MOH     0.0372 ****
12053 HC3    -4.813600   10.376079  -27.509353 H    1958 MOH     0.0372 ****
12054 O1     -6.803726   10.178895  -27.271058 O    1958 MOH    -0.6497 ****
12055 HO1    -7.102216   10.289531  -28.176862 H    1958 MOH     0.4215 ****
12056 HC1    -4.190639   12.579803  -25.081148 H    1959 MOH     0.0372 ****
12057 C1     -3.436620   11.826177  -25.308837 C    1959 MOH     0.1166 ****
12058 HC2    -3.922748   10.936604  -25.708352 H    1959 MOH     0.0372 ****
12059 HC3    -2.947604   11.536729  -24.378991 H    1959 MOH     0.0372 ****
12060 O1     -2.502467   12.368331  -26.253531 O    1959 MOH    -0.6497 ****
12061 HO1    -2.285960   13.266069  -25.994023 H    1959 MOH     0.4215 ****
12062 HC1    -8.254030    5.950259  -27.815530 H    1960 MOH     0.0372 ****
12063 C1     -8.661062    6.950876  -27.960487 C    1960 MOH     0.1166 ****
12064 HC2    -9.706643    6.905152  -28.265957 H    1960 MOH     0.0372 ****
12065 HC3    -8.104496    7.408522  -28.777196 H    1960 MOH     0.0372 ****
12066 O1     -8.506332    7.774721  -26.803660 O    1960 MOH    -0.6497 ****
12067 HO1    -8.223431    8.654904  -27.063876 H    1960 MOH     0.4215 ****
12068 HC1    -8.848124   10.355667  -25.593094 H    1961 MOH     0.0372 ****
12069 C1     -8.759789   11.341586  -25.137010 C    1961 MOH     0.1166 ****
12070 HC2    -9.360811   11.373430  -24.229085 H    1961 MOH     0.0372 ****
12071 HC3    -9.111973   12.076842  -25.860380 H    1961 MOH     0.0372 ****
12072 O1     -7.419759   11.545302  -24.829418 O    1961 MOH    -0.6497 ****
12073 HO1    -6.934785   11.078675  -25.513191 H    1961 MOH     0.4215 ****
12074 HC1    -6.884555    5.518333  -24.779214 H    1962 MOH     0.0372 ****
12075 C1     -5.808374    5.526498  -24.948919 C    1962 MOH     0.1166 ****
12076 HC2    -5.388063    6.386677  -24.429196 H    1962 MOH     0.0372 ****
12077 HC3    -5.604570    5.586919  -26.018065 H    1962 MOH     0.0372 ****
12078 O1     -5.214858    4.381770  -24.448288 O    1962 MOH    -0.6497 ****
12079 HO1    -5.676739    4.120491  -23.649257 H    1962 MOH     0.4215 ****
12080 HC1     0.556335   12.609606  -20.266458 H    1963 MOH     0.0372 ****
12081 C1      0.631390   13.651455  -20.576171 C    1963 MOH     0.1166 ****
12082 HC2     1.670044   13.875992  -20.819416 H    1963 MOH     0.0372 ****
12083 HC3     0.269392   14.252805  -19.741078 H    1963 MOH     0.0372 ****
12084 O1     -0.256574   13.809039  -21.652388 O    1963 MOH    -0.6497 ****
12085 HO1     0.110621   13.288523  -22.370101 H    1963 MOH     0.4215 ****
12086 HC1    -9.718768    8.696954  -19.717743 H    1964 MOH     0.0372 ****
12087 C1     -8.726303    8.717775  -20.168170 C    1964 MOH     0.1166 ****
12088 HC2    -8.203223    9.628985  -19.878257 H    1964 MOH     0.0372 ****
12089 HC3    -8.786347    8.662253  -21.254286 H    1964 MOH     0.0372 ****
12090 O1     -7.991336    7.653063  -19.719865 O    1964 MOH    -0.6497 ****
12091 HO1    -8.438205    6.856979  -20.015435 H    1964 MOH     0.4215 ****
12092 HC1    -2.543459    9.299937  -24.191608 H    1965 MOH     0.0372 ****
12093 C1     -2.292311    8.779420  -23.267419 C    1965 MOH     0.1166 ****
12094 HC2    -2.959151    7.925773  -23.146504 H    1965 MOH     0.0372 ****
12095 HC3    -2.415287    9.449356  -22.416770 H    1965 MOH     0.0372 ****
12096 O1     -0.952281    8.348718  -23.364293 O    1965 MOH    -0.6497 ****
12097 HO1    -0.762333    7.793092  -22.605567 H    1965 MOH     0.4215 ****
12098 HC1   -11.017229   15.528173  -24.970840 H    1966 MOH     0.0372 ****
12099 C1    -12.027014   15.927439  -24.878916 C    1966 MOH     0.1166 ****
12100 HC2   -12.639583   15.186061  -24.365556 H    1966 MOH     0.0372 ****
12101 HC3   -12.428273   16.119316  -25.874522 H    1966 MOH     0.0372 ****
12102 O1    -11.958887   17.116258  -24.116655 O    1966 MOH    -0.6497 ****
12103 HO1   -11.624601   17.809464  -24.690826 H    1966 MOH     0.4215 ****
12104 HC1    -8.587161   18.201791  -20.286257 H    1967 MOH     0.0372 ****
12105 C1     -7.979211   19.072584  -20.534452 C    1967 MOH     0.1166 ****
12106 HC2    -6.929589   18.803140  -20.649003 H    1967 MOH     0.0372 ****
12107 HC3    -8.035792   19.794776  -19.719158 H    1967 MOH     0.0372 ****
12108 O1     -8.374119   19.634742  -21.744312 O    1967 MOH    -0.6497 ****
12109 HO1    -8.092372   19.036250  -22.440105 H    1967 MOH     0.4215 ****
12110 HC1    -9.527665   10.457729  -30.084636 H    1968 MOH     0.0372 ****
12111 C1     -8.670877   10.199716  -30.708304 C    1968 MOH     0.1166 ****
12112 HC2    -8.484970   10.992942  -31.431674 H    1968 MOH     0.0372 ****
12113 HC3    -8.916828    9.295854  -31.265504 H    1968 MOH     0.0372 ****
12114 O1     -7.507516   10.009064  -29.907152 O    1968 MOH    -0.6497 ****
12115 HO1    -6.811232    9.661236  -30.468595 H    1968 MOH     0.4215 ****
12116 HC1    -0.132444   16.169531  -23.714311 H    1969 MOH     0.0372 ****
12117 C1     -0.754828   17.064003  -23.723503 C    1969 MOH     0.1166 ****
12118 HC2    -0.310845   17.851105  -23.113977 H    1969 MOH     0.0372 ****
12119 HC3    -1.726508   16.785986  -23.314089 H    1969 MOH     0.0372 ****
12120 O1     -0.934383   17.516750  -25.045086 O    1969 MOH    -0.6497 ****
12121 HO1    -0.077018   17.792318  -25.378133 H    1969 MOH     0.4215 ****
12122 HC1    -4.503563   16.349160  -25.873815 H    1970 MOH     0.0372 ****
12123 C1     -4.049765   17.228527  -25.417024 C    1970 MOH     0.1166 ****
12124 HC2    -3.212608   17.545327  -26.039278 H    1970 MOH     0.0372 ****
12125 HC3    -3.746079   16.979495  -24.400205 H    1970 MOH     0.0372 ****
12126 O1     -5.000084   18.226286  -25.452379 O    1970 MOH    -0.6497 ****
12127 HO1    -5.328019   18.281807  -26.353234 H    1970 MOH     0.4215 ****
12128 HC1     2.859385   19.668219  -20.496975 H    1971 MOH     0.0372 ****
12129 C1      2.606506   20.532888  -19.883206 C    1971 MOH     0.1166 ****
12130 HC2     3.414219   20.716192  -19.175393 H    1971 MOH     0.0372 ****
12131 HC3     1.688519   20.300187  -19.344391 H    1971 MOH     0.0372 ****
12132 O1      2.414248   21.641283  -20.739513 O    1971 MOH    -0.6497 ****
12133 HO1     1.728933   21.370206  -21.354696 H    1971 MOH     0.4215 ****
12134 HC1    -0.881267   12.408747  -24.031095 H    1972 MOH     0.0372 ****
12135 C1     -0.058543   11.717991  -24.216357 C    1972 MOH     0.1166 ****
12136 HC2     0.216853   11.839241  -25.263582 H    1972 MOH     0.0372 ****
12137 HC3    -0.366848   10.678183  -24.109584 H    1972 MOH     0.0372 ****
12138 O1      1.031494   12.028668  -23.331766 O    1972 MOH    -0.6497 ****
12139 HO1     1.642331   11.288106  -23.319038 H    1972 MOH     0.4215 ****
12140 HC1     3.952887   13.366498  -25.095998 H    1973 MOH     0.0372 ****
12141 C1      3.121502   14.049906  -25.265703 C    1973 MOH     0.1166 ****
12142 HC2     2.199474   13.589810  -24.908614 H    1973 MOH     0.0372 ****
12143 HC3     3.051065   14.238108  -26.336970 H    1973 MOH     0.0372 ****
12144 O1      3.449437   15.270568  -24.613751 O    1973 MOH    -0.6497 ****
12145 HO1     4.062583   15.073384  -23.901694 H    1973 MOH     0.4215 ****
12146 HC1    -3.540543   15.595942  -16.612838 H    1974 MOH     0.0372 ****
12147 C1     -4.431971   16.222603  -16.644657 C    1974 MOH     0.1166 ****
12148 HC2    -5.320514   15.591859  -16.684962 H    1974 MOH     0.0372 ****
12149 HC3    -4.422734   16.840691  -17.542683 H    1974 MOH     0.0372 ****
12150 O1     -4.421579   17.070126  -15.523186 O    1974 MOH    -0.6497 ****
12151 HO1    -3.665828   17.650247  -15.639859 H    1974 MOH     0.4215 ****
12152 HC1    -1.883547   16.857837  -18.026344 H    1975 MOH     0.0372 ****
12153 C1     -1.658958   17.923774  -17.976139 C    1975 MOH     0.1166 ****
12154 HC2    -2.018070   18.471643  -18.847295 H    1975 MOH     0.0372 ****
12155 HC3    -0.572962   17.970314  -18.048264 H    1975 MOH     0.0372 ****
12156 O1     -2.019802   18.521857  -16.709711 O    1975 MOH    -0.6497 ****
12157 HO1    -2.091971   19.470626  -16.835576 H    1975 MOH     0.4215 ****
12158 HC1    -2.796915    3.406873  -26.658704 H    1976 MOH     0.0372 ****
12159 C1     -2.215524    4.164173  -26.131909 C    1976 MOH     0.1166 ****
12160 HC2    -1.161859    3.920041  -26.269088 H    1976 MOH     0.0372 ****
12161 HC3    -2.445309    4.174788  -25.067006 H    1976 MOH     0.0372 ****
12162 O1     -2.343695    5.424436  -26.684159 O    1976 MOH    -0.6497 ****
12163 HO1    -1.545220    5.900861  -26.443036 H    1976 MOH     0.4215 ****
12164 HC1    -7.641462   14.763932  -21.576727 H    1977 MOH     0.0372 ****
12165 C1     -7.296206   13.920899  -22.174232 C    1977 MOH     0.1166 ****
12166 HC2    -6.556043   13.388952  -21.575313 H    1977 MOH     0.0372 ****
12167 HC3    -6.854533   14.306694  -23.092764 H    1977 MOH     0.0372 ****
12168 O1     -8.348716   13.003157  -22.507987 O    1977 MOH    -0.6497 ****
12169 HO1    -8.069855   12.489989  -23.269541 H    1977 MOH     0.4215 ****
12170 HC1    -2.576368    3.084356  -31.321366 H    1978 MOH     0.0372 ****
12171 C1     -2.609277    4.169480  -31.420361 C    1978 MOH     0.1166 ****
12172 HC2    -2.164139    4.638558  -30.542841 H    1978 MOH     0.0372 ****
12173 HC3    -3.646775    4.495263  -31.495314 H    1978 MOH     0.0372 ****
12174 O1     -1.923384    4.546702  -32.585673 O    1978 MOH    -0.6497 ****
12175 HO1    -1.821771    5.499962  -32.545367 H    1978 MOH     0.4215 ****
12176 HC1    -5.846480   21.799683  -23.327524 H    1979 MOH     0.0372 ****
12177 C1     -5.264510   22.042182  -24.217064 C    1979 MOH     0.1166 ****
12178 HC2    -5.300884   21.220379  -24.931949 H    1979 MOH     0.0372 ****
12179 HC3    -4.237404   22.185478  -23.879774 H    1979 MOH     0.0372 ****
12180 O1     -5.730432   23.286523  -24.748808 O    1979 MOH    -0.6497 ****
12181 HO1    -5.314740   23.963807  -24.210700 H    1979 MOH     0.4215 ****
12182 HC1    -8.352180   17.233426  -25.656026 H    1980 MOH     0.0372 ****
12183 C1     -8.189367   17.009297  -24.601730 C    1980 MOH     0.1166 ****
12184 HC2    -7.621832   16.082574  -24.509806 H    1980 MOH     0.0372 ****
12185 HC3    -9.173172   16.891722  -24.147767 H    1980 MOH     0.0372 ****
12186 O1     -7.496547   18.085848  -24.009882 O    1980 MOH    -0.6497 ****
12187 HO1    -6.658234   18.176479  -24.468087 H    1980 MOH     0.4215 ****
12188 HC1   -10.416784   11.167264  -20.896490 H    1981 MOH     0.0372 ****
12189 C1    -10.809960   11.602049  -19.977959 C    1981 MOH     0.1166 ****
12190 HC2   -10.994135   12.666760  -20.119380 H    1981 MOH     0.0372 ****
12191 HC3   -10.110789   11.457937  -19.154179 H    1981 MOH     0.0372 ****
12192 O1    -11.974475   10.941095  -19.649154 O    1981 MOH    -0.6497 ****
12193 HO1   -12.398828   11.390576  -18.914470 H    1981 MOH     0.4215 ****
12194 HC1    -7.605666    5.603248  -30.272019 H    1982 MOH     0.0372 ****
12195 C1     -6.570477    5.907393  -30.428290 C    1982 MOH     0.1166 ****
12196 HC2    -5.981579    5.004756  -30.595874 H    1982 MOH     0.0372 ****
12197 HC3    -6.197508    6.464244  -29.569862 H    1982 MOH     0.0372 ****
12198 O1     -6.572786    6.638974  -31.604916 O    1982 MOH    -0.6497 ****
12199 HO1    -5.935391    7.348102  -31.495314 H    1982 MOH     0.4215 ****
12200 HC1     5.456884   10.795350  -25.701281 H    1983 MOH     0.0372 ****
12201 C1      5.840822   11.392209  -26.528596 C    1983 MOH     0.1166 ****
12202 HC2     6.528446   10.774938  -27.107009 H    1983 MOH     0.0372 ****
12203 HC3     6.341962   12.254021  -26.086654 H    1983 MOH     0.0372 ****
12204 O1      4.775611   11.831893  -27.315606 O    1983 MOH    -0.6497 ****
12205 HO1     4.246181   11.075817  -27.577235 H    1983 MOH     0.4215 ****
12206 HC1    -4.076901   19.791510  -21.100844 H    1984 MOH     0.0372 ****
12207 C1     -4.013392   18.868460  -21.677136 C    1984 MOH     0.1166 ****
12208 HC2    -2.981668   18.664336  -21.962807 H    1984 MOH     0.0372 ****
12209 HC3    -4.630580   18.980320  -22.568091 H    1984 MOH     0.0372 ****
12210 O1     -4.531276   17.815180  -20.912047 O    1984 MOH    -0.6497 ****
12211 HO1    -4.281283   16.990518  -21.336311 H    1984 MOH     0.4215 ****
12212 HC1   -10.884438   11.673084  -15.678750 H    1985 MOH     0.0372 ****
12213 C1     -9.990123   11.230543  -15.238929 C    1985 MOH     0.1166 ****
12214 HC2    -9.924305   11.503661  -14.186047 H    1985 MOH     0.0372 ****
12215 HC3    -9.099848   11.600416  -15.748046 H    1985 MOH     0.0372 ****
12216 O1    -10.041507    9.818004  -15.354895 O    1985 MOH    -0.6497 ****
12217 HO1    -9.136221    9.509776  -15.266506 H    1985 MOH     0.4215 ****
12218 HC1   -11.480263   20.052788  -22.092208 H    1986 MOH     0.0372 ****
12219 C1    -11.546659   19.792326  -21.035791 C    1986 MOH     0.1166 ****
12220 HC2   -11.438694   18.714142  -20.912047 H    1986 MOH     0.0372 ****
12221 HC3   -12.530464   20.107085  -20.687187 H    1986 MOH     0.0372 ****
12222 O1    -10.562854   20.511251  -20.312420 O    1986 MOH    -0.6497 ****
12223 HO1    -9.740130   20.402249  -20.795374 H    1986 MOH     0.4215 ****
12224 HC1    -3.933718   22.613730  -17.243577 H    1987 MOH     0.0372 ****
12225 C1     -3.496087   21.710277  -17.668548 C    1987 MOH     0.1166 ****
12226 HC2    -3.252445   21.905419  -18.712238 H    1987 MOH     0.0372 ****
12227 HC3    -4.201609   20.883982  -17.575210 H    1987 MOH     0.0372 ****
12228 O1     -2.359861   21.412664  -16.921136 O    1987 MOH    -0.6497 ****
12229 HO1    -1.732282   22.138529  -16.969219 H    1987 MOH     0.4215 ****
12230 HC1    -7.153601   15.415904  -17.876437 H    1988 MOH     0.0372 ****
12231 C1     -7.564097   14.459379  -17.553290 C    1988 MOH     0.1166 ****
12232 HC2    -6.785251   13.696771  -17.532076 H    1988 MOH     0.0372 ****
12233 HC3    -8.349293   14.180545  -18.255447 H    1988 MOH     0.0372 ****
12234 O1     -8.159922   14.603899  -16.297468 O    1988 MOH    -0.6497 ****
12235 HO1    -7.539271   15.052972  -15.719055 H    1988 MOH     0.4215 ****
12236 HC1    -2.842526    1.530972  -28.158477 H    1989 MOH     0.0372 ****
12237 C1     -2.004791    1.759183  -28.818208 C    1989 MOH     0.1166 ****
12238 HC2    -1.647411    2.760616  -28.582741 H    1989 MOH     0.0372 ****
12239 HC3    -2.355242    1.714275  -29.849169 H    1989 MOH     0.0372 ****
12240 O1     -0.923991    0.817354  -28.613854 O    1989 MOH    -0.6497 ****
12241 HO1    -0.090875    1.205598  -28.891747 H    1989 MOH     0.4215 ****
12242 HC1    -8.648938   12.386294  -28.543143 H    1990 MOH     0.0372 ****
12243 C1     -8.960707   13.429776  -28.578499 C    1990 MOH     0.1166 ****
12244 HC2    -8.154726   14.087056  -28.250401 H    1990 MOH     0.0372 ****
12245 HC3    -9.803638   13.553067  -27.899676 H    1990 MOH     0.0372 ****
12246 O1     -9.413927   13.775971  -29.872504 O    1990 MOH    -0.6497 ****
12247 HO1    -9.625237   14.711676  -29.842805 H    1990 MOH     0.4215 ****
12248 HC1    -1.952829   20.399800  -21.045690 H    1991 MOH     0.0372 ****
12249 C1     -1.027337   20.699454  -20.552129 C    1991 MOH     0.1166 ****
12250 HC2    -0.583355   19.845398  -20.040184 H    1991 MOH     0.0372 ****
12251 HC3    -1.273288   21.451447  -19.802596 H    1991 MOH     0.0372 ****
12252 O1     -0.145146   21.198741  -21.578141 O    1991 MOH    -0.6497 ****
12253 HO1    -0.335671   22.136896  -21.653095 H    1991 MOH     0.4215 ****
12254 HC1   -12.923639   11.557141  -27.726435 H    1992 MOH     0.0372 ****
12255 C1    -12.152299   11.264019  -27.013671 C    1992 MOH     0.1166 ****
12256 HC2   -11.254519   11.007639  -27.576528 H    1992 MOH     0.0372 ****
12257 HC3   -12.482544   10.375671  -26.474856 H    1992 MOH     0.0372 ****
12258 O1    -11.891914   12.341386  -26.105039 O    1992 MOH    -0.6497 ****
12259 HO1   -12.558176   12.316483  -25.414196 H    1992 MOH     0.4215 ****
12260 HC1   -13.052966   12.167881  -21.843306 H    1993 MOH     0.0372 ****
12261 C1    -12.569723   12.017237  -22.808507 C    1993 MOH     0.1166 ****
12262 HC2   -12.114194   11.027643  -22.828306 H    1993 MOH     0.0372 ****
12263 HC3   -11.809353   12.786377  -22.947100 H    1993 MOH     0.0372 ****
12264 O1    -13.600871   12.066635  -23.794921 O    1993 MOH    -0.6497 ****
12265 HO1   -14.113558   12.867619  -23.664814 H    1993 MOH     0.4215 ****
12266 HC1     0.713836   28.075521  -15.678750 H    1994 MOH     0.0372 ****
12267 C1      1.608152   27.632979  -15.238929 C    1994 MOH     0.1166 ****
12268 HC2     1.673970   27.906098  -14.186047 H    1994 MOH     0.0372 ****
12269 HC3     2.498426   28.002852  -15.748046 H    1994 MOH     0.0372 ****
12270 O1      1.556767   26.220440  -15.354895 O    1994 MOH    -0.6497 ****
12271 HO1     2.462053   25.912213  -15.266506 H    1994 MOH     0.4215 ****
12272 HC1     0.282094    0.197469  -31.881253 H    1995 MOH     0.0372 ****
12273 C1     -0.429202   -0.628417  -31.891859 C    1995 MOH     0.1166 ****
12274 HC2    -0.067203   -1.359590  -32.615230 H    1995 MOH     0.0372 ****
12275 HC3    -1.418203   -0.256094  -32.161974 H    1995 MOH     0.0372 ****
12276 O1     -0.492710   -1.202006  -30.607046 O    1995 MOH    -0.6497 ****
12277 HO1    -0.768684   -0.518190  -29.992571 H    1995 MOH     0.4215 ****
12278 HC1    -3.933718   -1.989925  -31.448503 H    1996 MOH     0.0372 ****
12279 C1     -3.496087   -2.893378  -31.873475 C    1996 MOH     0.1166 ****
12280 HC2    -3.252445   -2.698236  -32.917164 H    1996 MOH     0.0372 ****
12281 HC3    -4.201609   -3.719673  -31.780136 H    1996 MOH     0.0372 ****
12282 O1     -2.359861   -3.190991  -31.126063 O    1996 MOH    -0.6497 ****
12283 HO1    -1.732281   -2.465126  -31.174146 H    1996 MOH     0.4215 ****
12284 HC1     0.713836    3.471866  -29.883676 H    1997 MOH     0.0372 ****
12285 C1      1.608152    3.029325  -29.443856 C    1997 MOH     0.1166 ****
12286 HC2     1.673970    3.302443  -28.390974 H    1997 MOH     0.0372 ****
12287 HC3     2.498426    3.399198  -29.952973 H    1997 MOH     0.0372 ****
12288 O1      1.556768    1.616786  -29.559821 O    1997 MOH    -0.6497 ****
12289 HO1     2.462053    1.308558  -29.471433 H    1997 MOH     0.4215 ****
@<TRIPOS>BOND
    1   354   353 1
    2   355   353 1
    3   356   353 1
    4   357   356 1
    5   358   357 1
    6   359   358 1
    7   360   359 1
    8   361   360 1
    9   362   361 1
   10   362   358 1
   11   363   362 1
   12   364   360 1
   13   365   360 1
   14   366   359 1
   15   367   359 1
   16   368   358 1
   17   369   357 1
   18   370   356 1
   19   309   308 1
   20   310   308 1
   21   311   310 1
   22   312   310 1
   23   313   312 1
   24   314   313 1
   25   315   314 1
   26   316   315 1
   27   317   316 1
   28   318   317 1
   29   319   318 1
   30   320   318 1
   31   321   320 1
   32   322   321 1
   33   323   321 1
   34   324   321 1
   35   325   317 1
   36   326   317 1
   37   327   316 1
   38   328   316 1
   39   329   314 1
   40   330   314 1
   41   331   313 1
   42   332   313 1
   43   333   312 1
   44   334   312 1
   45   335   334 1
   46   336   334 1
   47   337   336 1
   48   338   336 1
   49   339   338 1
   50   340   338 1
   51   341   338 1
   52   342   341 1
   53   343   341 1
   54   344   341 1
   55   345   344 1
   56   346   345 1
   57   347   345 1
   58   348   347 1
   59   349   347 1
   60   350   347 1
   61   350   353 1
   62   351   350 1
   63   352   350 1
   64   261   260 1
   65   262   260 1
   66   263   262 1
   67   264   262 1
   68   265   264 1
   69   266   265 1
   70   267   266 1
   71   268   267 1
   72   269   268 1
   73   270   269 1
   74   271   270 1
   75   272   270 1
   76   273   272 1
   77   274   273 1
   78   275   273 1
   79   276   273 1
   80   277   269 1
   81   278   269 1
   82   279   268 1
   83   280   268 1
   84   281   266 1
   85   282   266 1
   86   283   265 1
   87   284   265 1
   88   285   264 1
   89   286   264 1
   90   287   286 1
   91   288   286 1
   92   289   288 1
   93   290   288 1
   94   291   290 1
   95   292   290 1
   96   293   290 1
   97   294   293 1
   98   295   293 1
   99   296   293 1
  100   297   296 1
  101   298   297 1
  102   299   297 1
  103   300   299 1
  104   301   299 1
  105   302   299 1
  106   303   302 1
  107   304   302 1
  108   305   302 1
  109   305   308 1
  110   306   305 1
  111   307   305 1
  112   213   212 1
  113   214   212 1
  114   215   214 1
  115   216   214 1
  116   217   216 1
  117   218   217 1
  118   219   218 1
  119   220   219 1
  120   221   220 1
  121   222   221 1
  122   223   222 1
  123   224   222 1
  124   225   224 1
  125   226   225 1
  126   227   225 1
  127   228   225 1
  128   229   221 1
  129   230   221 1
  130   231   220 1
  131   232   220 1
  132   233   218 1
  133   234   218 1
  134   235   217 1
  135   236   217 1
  136   237   216 1
  137   238   216 1
  138   239   238 1
  139   240   238 1
  140   241   240 1
  141   242   240 1
  142   243   242 1
  143   244   242 1
  144   245   242 1
  145   246   245 1
  146   247   245 1
  147   248   245 1
  148   249   248 1
  149   250   249 1
  150   251   249 1
  151   252   251 1
  152   253   251 1
  153   254   251 1
  154   255   254 1
  155   256   254 1
  156   257   254 1
  157   257   260 1
  158   258   257 1
  159   259   257 1
  160   165   164 1
  161   166   164 1
  162   167   166 1
  163   168   166 1
  164   169   168 1
  165   170   169 1
  166   171   170 1
  167   172   171 1
  168   173   172 1
  169   174   173 1
  170   175   174 1
  171   176   174 1
  172   177   176 1
  173   178   177 1
  174   179   177 1
  175   180   177 1
  176   181   173 1
  177   182   173 1
  178   183   172 1
  179   184   172 1
  180   185   170 1
  181   186   170 1
  182   187   169 1
  183   188   169 1
  184   189   168 1
  185   190   168 1
  186   191   190 1
  187   192   190 1
  188   193   192 1
  189   194   192 1
  190   195   194 1
  191   196   194 1
  192   197   194 1
  193   198   197 1
  194   199   197 1
  195   200   197 1
  196   201   200 1
  197   202   201 1
  198   203   201 1
  199   204   203 1
  200   205   203 1
  201   206   203 1
  202   207   206 1
  203   208   206 1
  204   209   206 1
  205   209   212 1
  206   210   209 1
  207   211   209 1
  208   114   113 1
  209   115   113 1
  210   116   115 1
  211   117   115 1
  212   118   117 1
  213   119   118 1
  214   120   119 1
  215   121   120 1
  216   122   121 1
  217   123   122 1
  218   124   123 1
  219   125   124 1
  220   126   125 1
  221   127   126 1
  222   128   127 1
  223   128   123 1
  224   129   127 1
  225   130   126 1
  226   131   125 1
  227   132   124 1
  228   133   122 1
  229   134   122 1
  230   135   121 1
  231   136   121 1
  232   137   119 1
  233   138   119 1
  234   139   118 1
  235   140   118 1
  236   141   117 1
  237   142   117 1
  238   143   142 1
  239   144   142 1
  240   145   144 1
  241   146   144 1
  242   147   146 1
  243   148   146 1
  244   149   146 1
  245   150   149 1
  246   151   149 1
  247   152   149 1
  248   153   152 1
  249   154   153 1
  250   155   153 1
  251   156   155 1
  252   157   155 1
  253   158   155 1
  254   159   158 1
  255   160   158 1
  256   161   158 1
  257   161   164 1
  258   162   161 1
  259   163   161 1
  260    66    65 1
  261    67    65 1
  262    68    67 1
  263    69    67 1
  264    70    69 1
  265    71    70 1
  266    72    71 1
  267    73    72 1
  268    74    73 1
  269    75    74 1
  270    76    75 1
  271    77    75 1
  272    78    77 1
  273    79    78 1
  274    80    78 1
  275    81    78 1
  276    82    74 1
  277    83    74 1
  278    84    73 1
  279    85    73 1
  280    86    71 1
  281    87    71 1
  282    88    70 1
  283    89    70 1
  284    90    69 1
  285    91    69 1
  286    92    91 1
  287    93    91 1
  288    94    93 1
  289    95    93 1
  290    96    95 1
  291    97    95 1
  292    98    95 1
  293    99    98 1
  294   100    98 1
  295   101    98 1
  296   102   101 1
  297   103   102 1
  298   104   102 1
  299   105   104 1
  300   106   104 1
  301   107   104 1
  302   108   107 1
  303   109   107 1
  304   110   107 1
  305   110   113 1
  306   111   110 1
  307   112   110 1
  308    15    14 1
  309    16    14 1
  310    17    16 1
  311    18    16 1
  312    19    18 1
  313    20    19 1
  314    21    20 1
  315    22    21 1
  316    23    22 1
  317    24    23 1
  318    25    24 1
  319    26    25 1
  320    27    26 1
  321    28    27 1
  322    29    28 1
  323    29    24 1
  324    30    28 1
  325    31    27 1
  326    32    26 1
  327    33    25 1
  328    34    23 1
  329    35    23 1
  330    36    22 1
  331    37    22 1
  332    38    20 1
  333    39    20 1
  334    40    19 1
  335    41    19 1
  336    42    18 1
  337    43    18 1
  338    44    43 1
  339    45    43 1
  340    46    45 1
  341    47    45 1
  342    48    47 1
  343    49    47 1
  344    50    47 1
  345    51    50 1
  346    52    50 1
  347    53    50 1
  348    54    53 1
  349    55    54 1
  350    56    54 1
  351    57    56 1
  352    58    56 1
  353    59    56 1
  354    60    59 1
  355    61    59 1
  356    62    59 1
  357    62    65 1
  358    63    62 1
  359    64    62 1
  360     2     1 1
  361     3     1 1
  362     4     3 1
  363     5     3 1
  364     6     5 1
  365     7     5 1
  366     8     5 1
  367     9     8 1
  368    10     8 1
  369    11     8 1
  370    11    14 1
  371    12    11 1
  372    13    11 1
  373   372   371 1
  374   373   371 1
  375   374   371 1
  376   375   371 1
  377   376   371 1
  378   377   371 1
  379   381   380 1
  380   382   381 1
  381   383   381 1
  382   384   381 1
  383   385   384 1
  384   387   386 1
  385   388   387 1
  386   389   387 1
  387   390   387 1
  388   391   390 1
  389   393   392 1
  390   394   393 1
  391   395   393 1
  392   396   393 1
  393   397   396 1
  394   399   398 1
  395   400   399 1
  396   401   399 1
  397   402   399 1
  398   403   402 1
  399   405   404 1
  400   406   405 1
  401   407   405 1
  402   408   405 1
  403   409   408 1
  404   411   410 1
  405   412   411 1
  406   413   411 1
  407   414   411 1
  408   415   414 1
  409   417   416 1
  410   418   417 1
  411   419   417 1
  412   420   417 1
  413   421   420 1
  414   423   422 1
  415   424   423 1
  416   425   423 1
  417   426   423 1
  418   427   426 1
  419   429   428 1
  420   430   429 1
  421   431   429 1
  422   432   429 1
  423   433   432 1
  424   435   434 1
  425   436   435 1
  426   437   435 1
  427   438   435 1
  428   439   438 1
  429   441   440 1
  430   442   441 1
  431   443   441 1
  432   444   441 1
  433   445   444 1
  434   447   446 1
  435   448   447 1
  436   449   447 1
  437   450   447 1
  438   451   450 1
  439   453   452 1
  440   454   453 1
  441   455   453 1
  442   456   453 1
  443   457   456 1
  444   459   458 1
  445   460   459 1
  446   461   459 1
  447   462   459 1
  448   463   462 1
  449   465   464 1
  450   466   465 1
  451   467   465 1
  452   468   465 1
  453   469   468 1
  454   471   470 1
  455   472   471 1
  456   473   471 1
  457   474   471 1
  458   475   474 1
  459   477   476 1
  460   478   477 1
  461   479   477 1
  462   480   477 1
  463   481   480 1
  464   483   482 1
  465   484   483 1
  466   485   483 1
  467   486   483 1
  468   487   486 1
  469   489   488 1
  470   490   489 1
  471   491   489 1
  472   492   489 1
  473   493   492 1
  474   495   494 1
  475   496   495 1
  476   497   495 1
  477   498   495 1
  478   499   498 1
  479   501   500 1
  480   502   501 1
  481   503   501 1
  482   504   501 1
  483   505   504 1
  484   507   506 1
  485   508   507 1
  486   509   507 1
  487   510   507 1
  488   511   510 1
  489   513   512 1
  490   514   513 1
  491   515   513 1
  492   516   513 1
  493   517   516 1
  494   519   518 1
  495   520   519 1
  496   521   519 1
  497   522   519 1
  498   523   522 1
  499   525   524 1
  500   526   525 1
  501   527   525 1
  502   528   525 1
  503   529   528 1
  504   531   530 1
  505   532   531 1
  506   533   531 1
  507   534   531 1
  508   535   534 1
  509   537   536 1
  510   538   537 1
  511   539   537 1
  512   540   537 1
  513   541   540 1
  514   543   542 1
  515   544   543 1
  516   545   543 1
  517   546   543 1
  518   547   546 1
  519   549   548 1
  520   550   549 1
  521   551   549 1
  522   552   549 1
  523   553   552 1
  524   555   554 1
  525   556   555 1
  526   557   555 1
  527   558   555 1
  528   559   558 1
  529   561   560 1
  530   562   561 1
  531   563   561 1
  532   564   561 1
  533   565   564 1
  534   567   566 1
  535   568   567 1
  536   569   567 1
  537   570   567 1
  538   571   570 1
  539   573   572 1
  540   574   573 1
  541   575   573 1
  542   576   573 1
  543   577   576 1
  544   579   578 1
  545   580   579 1
  546   581   579 1
  547   582   579 1
  548   583   582 1
  549   585   584 1
  550   586   585 1
  551   587   585 1
  552   588   585 1
  553   589   588 1
  554   591   590 1
  555   592   591 1
  556   593   591 1
  557   594   591 1
  558   595   594 1
  559   597   596 1
  560   598   597 1
  561   599   597 1
  562   600   597 1
  563   601   600 1
  564   603   602 1
  565   604   603 1
  566   605   603 1
  567   606   603 1
  568   607   606 1
  569   609   608 1
  570   610   609 1
  571   611   609 1
  572   612   609 1
  573   613   612 1
  574   615   614 1
  575   616   615 1
  576   617   615 1
  577   618   615 1
  578   619   618 1
  579   621   620 1
  580   622   621 1
  581   623   621 1
  582   624   621 1
  583   625   624 1
  584   627   626 1
  585   628   627 1
  586   629   627 1
  587   630   627 1
  588   631   630 1
  589   633   632 1
  590   634   633 1
  591   635   633 1
  592   636   633 1
  593   637   636 1
  594   639   638 1
  595   640   639 1
  596   641   639 1
  597   642   639 1
  598   643   642 1
  599   645   644 1
  600   646   645 1
  601   647   645 1
  602   648   645 1
  603   649   648 1
  604   651   650 1
  605   652   651 1
  606   653   651 1
  607   654   651 1
  608   655   654 1
  609   657   656 1
  610   658   657 1
  611   659   657 1
  612   660   657 1
  613   661   660 1
  614   663   662 1
  615   664   663 1
  616   665   663 1
  617   666   663 1
  618   667   666 1
  619   669   668 1
  620   670   669 1
  621   671   669 1
  622   672   669 1
  623   673   672 1
  624   675   674 1
  625   676   675 1
  626   677   675 1
  627   678   675 1
  628   679   678 1
  629   681   680 1
  630   682   681 1
  631   683   681 1
  632   684   681 1
  633   685   684 1
  634   687   686 1
  635   688   687 1
  636   689   687 1
  637   690   687 1
  638   691   690 1
  639   693   692 1
  640   694   693 1
  641   695   693 1
  642   696   693 1
  643   697   696 1
  644   699   698 1
  645   700   699 1
  646   701   699 1
  647   702   699 1
  648   703   702 1
  649   705   704 1
  650   706   705 1
  651   707   705 1
  652   708   705 1
  653   709   708 1
  654   711   710 1
  655   712   711 1
  656   713   711 1
  657   714   711 1
  658   715   714 1
  659   717   716 1
  660   718   717 1
  661   719   717 1
  662   720   717 1
  663   721   720 1
  664   723   722 1
  665   724   723 1
  666   725   723 1
  667   726   723 1
  668   727   726 1
  669   729   728 1
  670   730   729 1
  671   731   729 1
  672   732   729 1
  673   733   732 1
  674   735   734 1
  675   736   735 1
  676   737   735 1
  677   738   735 1
  678   739   738 1
  679   741   740 1
  680   742   741 1
  681   743   741 1
  682   744   741 1
  683   745   744 1
  684   747   746 1
  685   748   747 1
  686   749   747 1
  687   750   747 1
  688   751   750 1
  689   753   752 1
  690   754   753 1
  691   755   753 1
  692   756   753 1
  693   757   756 1
  694   759   758 1
  695   760   759 1
  696   761   759 1
  697   762   759 1
  698   763   762 1
  699   765   764 1
  700   766   765 1
  701   767   765 1
  702   768   765 1
  703   769   768 1
  704   771   770 1
  705   772   771 1
  706   773   771 1
  707   774   771 1
  708   775   774 1
  709   777   776 1
  710   778   777 1
  711   779   777 1
  712   780   777 1
  713   781   780 1
  714   783   782 1
  715   784   783 1
  716   785   783 1
  717   786   783 1
  718   787   786 1
  719   789   788 1
  720   790   789 1
  721   791   789 1
  722   792   789 1
  723   793   792 1
  724   795   794 1
  725   796   795 1
  726   797   795 1
  727   798   795 1
  728   799   798 1
  729   801   800 1
  730   802   801 1
  731   803   801 1
  732   804   801 1
  733   805   804 1
  734   807   806 1
  735   808   807 1
  736   809   807 1
  737   810   807 1
  738   811   810 1
  739   813   812 1
  740   814   813 1
  741   815   813 1
  742   816   813 1
  743   817   816 1
  744   819   818 1
  745   820   819 1
  746   821   819 1
  747   822   819 1
  748   823   822 1
  749   825   824 1
  750   826   825 1
  751   827   825 1
  752   828   825 1
  753   829   828 1
  754   831   830 1
  755   832   831 1
  756   833   831 1
  757   834   831 1
  758   835   834 1
  759   837   836 1
  760   838   837 1
  761   839   837 1
  762   840   837 1
  763   841   840 1
  764   843   842 1
  765   844   843 1
  766   845   843 1
  767   846   843 1
  768   847   846 1
  769   849   848 1
  770   850   849 1
  771   851   849 1
  772   852   849 1
  773   853   852 1
  774   855   854 1
  775   856   855 1
  776   857   855 1
  777   858   855 1
  778   859   858 1
  779   861   860 1
  780   862   861 1
  781   863   861 1
  782   864   861 1
  783   865   864 1
  784   867   866 1
  785   868   867 1
  786   869   867 1
  787   870   867 1
  788   871   870 1
  789   873   872 1
  790   874   873 1
  791   875   873 1
  792   876   873 1
  793   877   876 1
  794   879   878 1
  795   880   879 1
  796   881   879 1
  797   882   879 1
  798   883   882 1
  799   885   884 1
  800   886   885 1
  801   887   885 1
  802   888   885 1
  803   889   888 1
  804   891   890 1
  805   892   891 1
  806   893   891 1
  807   894   891 1
  808   895   894 1
  809   897   896 1
  810   898   897 1
  811   899   897 1
  812   900   897 1
  813   901   900 1
  814   903   902 1
  815   904   903 1
  816   905   903 1
  817   906   903 1
  818   907   906 1
  819   909   908 1
  820   910   909 1
  821   911   909 1
  822   912   909 1
  823   913   912 1
  824   915   914 1
  825   916   915 1
  826   917   915 1
  827   918   915 1
  828   919   918 1
  829   921   920 1
  830   922   921 1
  831   923   921 1
  832   924   921 1
  833   925   924 1
  834   927   926 1
  835   928   927 1
  836   929   927 1
  837   930   927 1
  838   931   930 1
  839   933   932 1
  840   934   933 1
  841   935   933 1
  842   936   933 1
  843   937   936 1
  844   939   938 1
  845   940   939 1
  846   941   939 1
  847   942   939 1
  848   943   942 1
  849   945   944 1
  850   946   945 1
  851   947   945 1
  852   948   945 1
  853   949   948 1
  854   951   950 1
  855   952   951 1
  856   953   951 1
  857   954   951 1
  858   955   954 1
  859   957   956 1
  860   958   957 1
  861   959   957 1
  862   960   957 1
  863   961   960 1
  864   963   962 1
  865   964   963 1
  866   965   963 1
  867   966   963 1
  868   967   966 1
  869   969   968 1
  870   970   969 1
  871   971   969 1
  872   972   969 1
  873   973   972 1
  874   975   974 1
  875   976   975 1
  876   977   975 1
  877   978   975 1
  878   979   978 1
  879   981   980 1
  880   982   981 1
  881   983   981 1
  882   984   981 1
  883   985   984 1
  884   987   986 1
  885   988   987 1
  886   989   987 1
  887   990   987 1
  888   991   990 1
  889   993   992 1
  890   994   993 1
  891   995   993 1
  892   996   993 1
  893   997   996 1
  894   999   998 1
  895  1000   999 1
  896  1001   999 1
  897  1002   999 1
  898  1003  1002 1
  899  1005  1004 1
  900  1006  1005 1
  901  1007  1005 1
  902  1008  1005 1
  903  1009  1008 1
  904  1011  1010 1
  905  1012  1011 1
  906  1013  1011 1
  907  1014  1011 1
  908  1015  1014 1
  909  1017  1016 1
  910  1018  1017 1
  911  1019  1017 1
  912  1020  1017 1
  913  1021  1020 1
  914  1023  1022 1
  915  1024  1023 1
  916  1025  1023 1
  917  1026  1023 1
  918  1027  1026 1
  919  1029  1028 1
  920  1030  1029 1
  921  1031  1029 1
  922  1032  1029 1
  923  1033  1032 1
  924  1035  1034 1
  925  1036  1035 1
  926  1037  1035 1
  927  1038  1035 1
  928  1039  1038 1
  929  1041  1040 1
  930  1042  1041 1
  931  1043  1041 1
  932  1044  1041 1
  933  1045  1044 1
  934  1047  1046 1
  935  1048  1047 1
  936  1049  1047 1
  937  1050  1047 1
  938  1051  1050 1
  939  1053  1052 1
  940  1054  1053 1
  941  1055  1053 1
  942  1056  1053 1
  943  1057  1056 1
  944  1059  1058 1
  945  1060  1059 1
  946  1061  1059 1
  947  1062  1059 1
  948  1063  1062 1
  949  1065  1064 1
  950  1066  1065 1
  951  1067  1065 1
  952  1068  1065 1
  953  1069  1068 1
  954  1071  1070 1
  955  1072  1071 1
  956  1073  1071 1
  957  1074  1071 1
  958  1075  1074 1
  959  1077  1076 1
  960  1078  1077 1
  961  1079  1077 1
  962  1080  1077 1
  963  1081  1080 1
  964  1083  1082 1
  965  1084  1083 1
  966  1085  1083 1
  967  1086  1083 1
  968  1087  1086 1
  969  1089  1088 1
  970  1090  1089 1
  971  1091  1089 1
  972  1092  1089 1
  973  1093  1092 1
  974  1095  1094 1
  975  1096  1095 1
  976  1097  1095 1
  977  1098  1095 1
  978  1099  1098 1
  979  1101  1100 1
  980  1102  1101 1
  981  1103  1101 1
  982  1104  1101 1
  983  1105  1104 1
  984  1107  1106 1
  985  1108  1107 1
  986  1109  1107 1
  987  1110  1107 1
  988  1111  1110 1
  989  1113  1112 1
  990  1114  1113 1
  991  1115  1113 1
  992  1116  1113 1
  993  1117  1116 1
  994  1119  1118 1
  995  1120  1119 1
  996  1121  1119 1
  997  1122  1119 1
  998  1123  1122 1
  999  1125  1124 1
 1000  1126  1125 1
 1001  1127  1125 1
 1002  1128  1125 1
 1003  1129  1128 1
 1004  1131  1130 1
 1005  1132  1131 1
 1006  1133  1131 1
 1007  1134  1131 1
 1008  1135  1134 1
 1009  1137  1136 1
 1010  1138  1137 1
 1011  1139  1137 1
 1012  1140  1137 1
 1013  1141  1140 1
 1014  1143  1142 1
 1015  1144  1143 1
 1016  1145  1143 1
 1017  1146  1143 1
 1018  1147  1146 1
 1019  1149  1148 1
 1020  1150  1149 1
 1021  1151  1149 1
 1022  1152  1149 1
 1023  1153  1152 1
 1024  1155  1154 1
 1025  1156  1155 1
 1026  1157  1155 1
 1027  1158  1155 1
 1028  1159  1158 1
 1029  1161  1160 1
 1030  1162  1161 1
 1031  1163  1161 1
 1032  1164  1161 1
 1033  1165  1164 1
 1034  1167  1166 1
 1035  1168  1167 1
 1036  1169  1167 1
 1037  1170  1167 1
 1038  1171  1170 1
 1039  1173  1172 1
 1040  1174  1173 1
 1041  1175  1173 1
 1042  1176  1173 1
 1043  1177  1176 1
 1044  1179  1178 1
 1045  1180  1179 1
 1046  1181  1179 1
 1047  1182  1179 1
 1048  1183  1182 1
 1049  1185  1184 1
 1050  1186  1185 1
 1051  1187  1185 1
 1052  1188  1185 1
 1053  1189  1188 1
 1054  1191  1190 1
 1055  1192  1191 1
 1056  1193  1191 1
 1057  1194  1191 1
 1058  1195  1194 1
 1059  1197  1196 1
 1060  1198  1197 1
 1061  1199  1197 1
 1062  1200  1197 1
 1063  1201  1200 1
 1064  1203  1202 1
 1065  1204  1203 1
 1066  1205  1203 1
 1067  1206  1203 1
 1068  1207  1206 1
 1069  1209  1208 1
 1070  1210  1209 1
 1071  1211  1209 1
 1072  1212  1209 1
 1073  1213  1212 1
 1074  1215  1214 1
 1075  1216  1215 1
 1076  1217  1215 1
 1077  1218  1215 1
 1078  1219  1218 1
 1079  1221  1220 1
 1080  1222  1221 1
 1081  1223  1221 1
 1082  1224  1221 1
 1083  1225  1224 1
 1084  1227  1226 1
 1085  1228  1227 1
 1086  1229  1227 1
 1087  1230  1227 1
 1088  1231  1230 1
 1089  1233  1232 1
 1090  1234  1233 1
 1091  1235  1233 1
 1092  1236  1233 1
 1093  1237  1236 1
 1094  1239  1238 1
 1095  1240  1239 1
 1096  1241  1239 1
 1097  1242  1239 1
 1098  1243  1242 1
 1099  1245  1244 1
 1100  1246  1245 1
 1101  1247  1245 1
 1102  1248  1245 1
 1103  1249  1248 1
 1104  1251  1250 1
 1105  1252  1251 1
 1106  1253  1251 1
 1107  1254  1251 1
 1108  1255  1254 1
 1109  1257  1256 1
 1110  1258  1257 1
 1111  1259  1257 1
 1112  1260  1257 1
 1113  1261  1260 1
 1114  1263  1262 1
 1115  1264  1263 1
 1116  1265  1263 1
 1117  1266  1263 1
 1118  1267  1266 1
 1119  1269  1268 1
 1120  1270  1269 1
 1121  1271  1269 1
 1122  1272  1269 1
 1123  1273  1272 1
 1124  1275  1274 1
 1125  1276  1275 1
 1126  1277  1275 1
 1127  1278  1275 1
 1128  1279  1278 1
 1129  1281  1280 1
 1130  1282  1281 1
 1131  1283  1281 1
 1132  1284  1281 1
 1133  1285  1284 1
 1134  1287  1286 1
 1135  1288  1287 1
 1136  1289  1287 1
 1137  1290  1287 1
 1138  1291  1290 1
 1139  1293  1292 1
 1140  1294  1293 1
 1141  1295  1293 1
 1142  1296  1293 1
 1143  1297  1296 1
 1144  1299  1298 1
 1145  1300  1299 1
 1146  1301  1299 1
 1147  1302  1299 1
 1148  1303  1302 1
 1149  1305  1304 1
 1150  1306  1305 1
 1151  1307  1305 1
 1152  1308  1305 1
 1153  1309  1308 1
 1154  1311  1310 1
 1155  1312  1311 1
 1156  1313  1311 1
 1157  1314  1311 1
 1158  1315  1314 1
 1159  1317  1316 1
 1160  1318  1317 1
 1161  1319  1317 1
 1162  1320  1317 1
 1163  1321  1320 1
 1164  1323  1322 1
 1165  1324  1323 1
 1166  1325  1323 1
 1167  1326  1323 1
 1168  1327  1326 1
 1169  1329  1328 1
 1170  1330  1329 1
 1171  1331  1329 1
 1172  1332  1329 1
 1173  1333  1332 1
 1174  1335  1334 1
 1175  1336  1335 1
 1176  1337  1335 1
 1177  1338  1335 1
 1178  1339  1338 1
 1179  1341  1340 1
 1180  1342  1341 1
 1181  1343  1341 1
 1182  1344  1341 1
 1183  1345  1344 1
 1184  1347  1346 1
 1185  1348  1347 1
 1186  1349  1347 1
 1187  1350  1347 1
 1188  1351  1350 1
 1189  1353  1352 1
 1190  1354  1353 1
 1191  1355  1353 1
 1192  1356  1353 1
 1193  1357  1356 1
 1194  1359  1358 1
 1195  1360  1359 1
 1196  1361  1359 1
 1197  1362  1359 1
 1198  1363  1362 1
 1199  1365  1364 1
 1200  1366  1365 1
 1201  1367  1365 1
 1202  1368  1365 1
 1203  1369  1368 1
 1204  1371  1370 1
 1205  1372  1371 1
 1206  1373  1371 1
 1207  1374  1371 1
 1208  1375  1374 1
 1209  1377  1376 1
 1210  1378  1377 1
 1211  1379  1377 1
 1212  1380  1377 1
 1213  1381  1380 1
 1214  1383  1382 1
 1215  1384  1383 1
 1216  1385  1383 1
 1217  1386  1383 1
 1218  1387  1386 1
 1219  1389  1388 1
 1220  1390  1389 1
 1221  1391  1389 1
 1222  1392  1389 1
 1223  1393  1392 1
 1224  1395  1394 1
 1225  1396  1395 1
 1226  1397  1395 1
 1227  1398  1395 1
 1228  1399  1398 1
 1229  1401  1400 1
 1230  1402  1401 1
 1231  1403  1401 1
 1232  1404  1401 1
 1233  1405  1404 1
 1234  1407  1406 1
 1235  1408  1407 1
 1236  1409  1407 1
 1237  1410  1407 1
 1238  1411  1410 1
 1239  1413  1412 1
 1240  1414  1413 1
 1241  1415  1413 1
 1242  1416  1413 1
 1243  1417  1416 1
 1244  1419  1418 1
 1245  1420  1419 1
 1246  1421  1419 1
 1247  1422  1419 1
 1248  1423  1422 1
 1249  1425  1424 1
 1250  1426  1425 1
 1251  1427  1425 1
 1252  1428  1425 1
 1253  1429  1428 1
 1254  1431  1430 1
 1255  1432  1431 1
 1256  1433  1431 1
 1257  1434  1431 1
 1258  1435  1434 1
 1259  1437  1436 1
 1260  1438  1437 1
 1261  1439  1437 1
 1262  1440  1437 1
 1263  1441  1440 1
 1264  1443  1442 1
 1265  1444  1443 1
 1266  1445  1443 1
 1267  1446  1443 1
 1268  1447  1446 1
 1269  1449  1448 1
 1270  1450  1449 1
 1271  1451  1449 1
 1272  1452  1449 1
 1273  1453  1452 1
 1274  1455  1454 1
 1275  1456  1455 1
 1276  1457  1455 1
 1277  1458  1455 1
 1278  1459  1458 1
 1279  1461  1460 1
 1280  1462  1461 1
 1281  1463  1461 1
 1282  1464  1461 1
 1283  1465  1464 1
 1284  1467  1466 1
 1285  1468  1467 1
 1286  1469  1467 1
 1287  1470  1467 1
 1288  1471  1470 1
 1289  1473  1472 1
 1290  1474  1473 1
 1291  1475  1473 1
 1292  1476  1473 1
 1293  1477  1476 1
 1294  1479  1478 1
 1295  1480  1479 1
 1296  1481  1479 1
 1297  1482  1479 1
 1298  1483  1482 1
 1299  1485  1484 1
 1300  1486  1485 1
 1301  1487  1485 1
 1302  1488  1485 1
 1303  1489  1488 1
 1304  1491  1490 1
 1305  1492  1491 1
 1306  1493  1491 1
 1307  1494  1491 1
 1308  1495  1494 1
 1309  1497  1496 1
 1310  1498  1497 1
 1311  1499  1497 1
 1312  1500  1497 1
 1313  1501  1500 1
 1314  1503  1502 1
 1315  1504  1503 1
 1316  1505  1503 1
 1317  1506  1503 1
 1318  1507  1506 1
 1319  1509  1508 1
 1320  1510  1509 1
 1321  1511  1509 1
 1322  1512  1509 1
 1323  1513  1512 1
 1324  1515  1514 1
 1325  1516  1515 1
 1326  1517  1515 1
 1327  1518  1515 1
 1328  1519  1518 1
 1329  1521  1520 1
 1330  1522  1521 1
 1331  1523  1521 1
 1332  1524  1521 1
 1333  1525  1524 1
 1334  1527  1526 1
 1335  1528  1527 1
 1336  1529  1527 1
 1337  1530  1527 1
 1338  1531  1530 1
 1339  1533  1532 1
 1340  1534  1533 1
 1341  1535  1533 1
 1342  1536  1533 1
 1343  1537  1536 1
 1344  1539  1538 1
 1345  1540  1539 1
 1346  1541  1539 1
 1347  1542  1539 1
 1348  1543  1542 1
 1349  1545  1544 1
 1350  1546  1545 1
 1351  1547  1545 1
 1352  1548  1545 1
 1353  1549  1548 1
 1354  1551  1550 1
 1355  1552  1551 1
 1356  1553  1551 1
 1357  1554  1551 1
 1358  1555  1554 1
 1359  1557  1556 1
 1360  1558  1557 1
 1361  1559  1557 1
 1362  1560  1557 1
 1363  1561  1560 1
 1364  1563  1562 1
 1365  1564  1563 1
 1366  1565  1563 1
 1367  1566  1563 1
 1368  1567  1566 1
 1369  1569  1568 1
 1370  1570  1569 1
 1371  1571  1569 1
 1372  1572  1569 1
 1373  1573  1572 1
 1374  1575  1574 1
 1375  1576  1575 1
 1376  1577  1575 1
 1377  1578  1575 1
 1378  1579  1578 1
 1379  1581  1580 1
 1380  1582  1581 1
 1381  1583  1581 1
 1382  1584  1581 1
 1383  1585  1584 1
 1384  1587  1586 1
 1385  1588  1587 1
 1386  1589  1587 1
 1387  1590  1587 1
 1388  1591  1590 1
 1389  1593  1592 1
 1390  1594  1593 1
 1391  1595  1593 1
 1392  1596  1593 1
 1393  1597  1596 1
 1394  1599  1598 1
 1395  1600  1599 1
 1396  1601  1599 1
 1397  1602  1599 1
 1398  1603  1602 1
 1399  1605  1604 1
 1400  1606  1605 1
 1401  1607  1605 1
 1402  1608  1605 1
 1403  1609  1608 1
 1404  1611  1610 1
 1405  1612  1611 1
 1406  1613  1611 1
 1407  1614  1611 1
 1408  1615  1614 1
 1409  1617  1616 1
 1410  1618  1617 1
 1411  1619  1617 1
 1412  1620  1617 1
 1413  1621  1620 1
 1414  1623  1622 1
 1415  1624  1623 1
 1416  1625  1623 1
 1417  1626  1623 1
 1418  1627  1626 1
 1419  1629  1628 1
 1420  1630  1629 1
 1421  1631  1629 1
 1422  1632  1629 1
 1423  1633  1632 1
 1424  1635  1634 1
 1425  1636  1635 1
 1426  1637  1635 1
 1427  1638  1635 1
 1428  1639  1638 1
 1429  1641  1640 1
 1430  1642  1641 1
 1431  1643  1641 1
 1432  1644  1641 1
 1433  1645  1644 1
 1434  1647  1646 1
 1435  1648  1647 1
 1436  1649  1647 1
 1437  1650  1647 1
 1438  1651  1650 1
 1439  1653  1652 1
 1440  1654  1653 1
 1441  1655  1653 1
 1442  1656  1653 1
 1443  1657  1656 1
 1444  1659  1658 1
 1445  1660  1659 1
 1446  1661  1659 1
 1447  1662  1659 1
 1448  1663  1662 1
 1449  1665  1664 1
 1450  1666  1665 1
 1451  1667  1665 1
 1452  1668  1665 1
 1453  1669  1668 1
 1454  1671  1670 1
 1455  1672  1671 1
 1456  1673  1671 1
 1457  1674  1671 1
 1458  1675  1674 1
 1459  1677  1676 1
 1460  1678  1677 1
 1461  1679  1677 1
 1462  1680  1677 1
 1463  1681  1680 1
 1464  1683  1682 1
 1465  1684  1683 1
 1466  1685  1683 1
 1467  1686  1683 1
 1468  1687  1686 1
 1469  1689  1688 1
 1470  1690  1689 1
 1471  1691  1689 1
 1472  1692  1689 1
 1473  1693  1692 1
 1474  1695  1694 1
 1475  1696  1695 1
 1476  1697  1695 1
 1477  1698  1695 1
 1478  1699  1698 1
 1479  1701  1700 1
 1480  1702  1701 1
 1481  1703  1701 1
 1482  1704  1701 1
 1483  1705  1704 1
 1484  1707  1706 1
 1485  1708  1707 1
 1486  1709  1707 1
 1487  1710  1707 1
 1488  1711  1710 1
 1489  1713  1712 1
 1490  1714  1713 1
 1491  1715  1713 1
 1492  1716  1713 1
 1493  1717  1716 1
 1494  1719  1718 1
 1495  1720  1719 1
 1496  1721  1719 1
 1497  1722  1719 1
 1498  1723  1722 1
 1499  1725  1724 1
 1500  1726  1725 1
 1501  1727  1725 1
 1502  1728  1725 1
 1503  1729  1728 1
 1504  1731  1730 1
 1505  1732  1731 1
 1506  1733  1731 1
 1507  1734  1731 1
 1508  1735  1734 1
 1509  1737  1736 1
 1510  1738  1737 1
 1511  1739  1737 1
 1512  1740  1737 1
 1513  1741  1740 1
 1514  1743  1742 1
 1515  1744  1743 1
 1516  1745  1743 1
 1517  1746  1743 1
 1518  1747  1746 1
 1519  1749  1748 1
 1520  1750  1749 1
 1521  1751  1749 1
 1522  1752  1749 1
 1523  1753  1752 1
 1524  1755  1754 1
 1525  1756  1755 1
 1526  1757  1755 1
 1527  1758  1755 1
 1528  1759  1758 1
 1529  1761  1760 1
 1530  1762  1761 1
 1531  1763  1761 1
 1532  1764  1761 1
 1533  1765  1764 1
 1534  1767  1766 1
 1535  1768  1767 1
 1536  1769  1767 1
 1537  1770  1767 1
 1538  1771  1770 1
 1539  1773  1772 1
 1540  1774  1773 1
 1541  1775  1773 1
 1542  1776  1773 1
 1543  1777  1776 1
 1544  1779  1778 1
 1545  1780  1779 1
 1546  1781  1779 1
 1547  1782  1779 1
 1548  1783  1782 1
 1549  1785  1784 1
 1550  1786  1785 1
 1551  1787  1785 1
 1552  1788  1785 1
 1553  1789  1788 1
 1554  1791  1790 1
 1555  1792  1791 1
 1556  1793  1791 1
 1557  1794  1791 1
 1558  1795  1794 1
 1559  1797  1796 1
 1560  1798  1797 1
 1561  1799  1797 1
 1562  1800  1797 1
 1563  1801  1800 1
 1564  1803  1802 1
 1565  1804  1803 1
 1566  1805  1803 1
 1567  1806  1803 1
 1568  1807  1806 1
 1569  1809  1808 1
 1570  1810  1809 1
 1571  1811  1809 1
 1572  1812  1809 1
 1573  1813  1812 1
 1574  1815  1814 1
 1575  1816  1815 1
 1576  1817  1815 1
 1577  1818  1815 1
 1578  1819  1818 1
 1579  1821  1820 1
 1580  1822  1821 1
 1581  1823  1821 1
 1582  1824  1821 1
 1583  1825  1824 1
 1584  1827  1826 1
 1585  1828  1827 1
 1586  1829  1827 1
 1587  1830  1827 1
 1588  1831  1830 1
 1589  1833  1832 1
 1590  1834  1833 1
 1591  1835  1833 1
 1592  1836  1833 1
 1593  1837  1836 1
 1594  1839  1838 1
 1595  1840  1839 1
 1596  1841  1839 1
 1597  1842  1839 1
 1598  1843  1842 1
 1599  1845  1844 1
 1600  1846  1845 1
 1601  1847  1845 1
 1602  1848  1845 1
 1603  1849  1848 1
 1604  1851  1850 1
 1605  1852  1851 1
 1606  1853  1851 1
 1607  1854  1851 1
 1608  1855  1854 1
 1609  1857  1856 1
 1610  1858  1857 1
 1611  1859  1857 1
 1612  1860  1857 1
 1613  1861  1860 1
 1614  1863  1862 1
 1615  1864  1863 1
 1616  1865  1863 1
 1617  1866  1863 1
 1618  1867  1866 1
 1619  1869  1868 1
 1620  1870  1869 1
 1621  1871  1869 1
 1622  1872  1869 1
 1623  1873  1872 1
 1624  1875  1874 1
 1625  1876  1875 1
 1626  1877  1875 1
 1627  1878  1875 1
 1628  1879  1878 1
 1629  1881  1880 1
 1630  1882  1881 1
 1631  1883  1881 1
 1632  1884  1881 1
 1633  1885  1884 1
 1634  1887  1886 1
 1635  1888  1887 1
 1636  1889  1887 1
 1637  1890  1887 1
 1638  1891  1890 1
 1639  1893  1892 1
 1640  1894  1893 1
 1641  1895  1893 1
 1642  1896  1893 1
 1643  1897  1896 1
 1644  1899  1898 1
 1645  1900  1899 1
 1646  1901  1899 1
 1647  1902  1899 1
 1648  1903  1902 1
 1649  1905  1904 1
 1650  1906  1905 1
 1651  1907  1905 1
 1652  1908  1905 1
 1653  1909  1908 1
 1654  1911  1910 1
 1655  1912  1911 1
 1656  1913  1911 1
 1657  1914  1911 1
 1658  1915  1914 1
 1659  1917  1916 1
 1660  1918  1917 1
 1661  1919  1917 1
 1662  1920  1917 1
 1663  1921  1920 1
 1664  1923  1922 1
 1665  1924  1923 1
 1666  1925  1923 1
 1667  1926  1923 1
 1668  1927  1926 1
 1669  1929  1928 1
 1670  1930  1929 1
 1671  1931  1929 1
 1672  1932  1929 1
 1673  1933  1932 1
 1674  1935  1934 1
 1675  1936  1935 1
 1676  1937  1935 1
 1677  1938  1935 1
 1678  1939  1938 1
 1679  1941  1940 1
 1680  1942  1941 1
 1681  1943  1941 1
 1682  1944  1941 1
 1683  1945  1944 1
 1684  1947  1946 1
 1685  1948  1947 1
 1686  1949  1947 1
 1687  1950  1947 1
 1688  1951  1950 1
 1689  1953  1952 1
 1690  1954  1953 1
 1691  1955  1953 1
 1692  1956  1953 1
 1693  1957  1956 1
 1694  1959  1958 1
 1695  1960  1959 1
 1696  1961  1959 1
 1697  1962  1959 1
 1698  1963  1962 1
 1699  1965  1964 1
 1700  1966  1965 1
 1701  1967  1965 1
 1702  1968  1965 1
 1703  1969  1968 1
 1704  1971  1970 1
 1705  1972  1971 1
 1706  1973  1971 1
 1707  1974  1971 1
 1708  1975  1974 1
 1709  1977  1976 1
 1710  1978  1977 1
 1711  1979  1977 1
 1712  1980  1977 1
 1713  1981  1980 1
 1714  1983  1982 1
 1715  1984  1983 1
 1716  1985  1983 1
 1717  1986  1983 1
 1718  1987  1986 1
 1719  1989  1988 1
 1720  1990  1989 1
 1721  1991  1989 1
 1722  1992  1989 1
 1723  1993  1992 1
 1724  1995  1994 1
 1725  1996  1995 1
 1726  1997  1995 1
 1727  1998  1995 1
 1728  1999  1998 1
 1729  2001  2000 1
 1730  2002  2001 1
 1731  2003  2001 1
 1732  2004  2001 1
 1733  2005  2004 1
 1734  2007  2006 1
 1735  2008  2007 1
 1736  2009  2007 1
 1737  2010  2007 1
 1738  2011  2010 1
 1739  2013  2012 1
 1740  2014  2013 1
 1741  2015  2013 1
 1742  2016  2013 1
 1743  2017  2016 1
 1744  2019  2018 1
 1745  2020  2019 1
 1746  2021  2019 1
 1747  2022  2019 1
 1748  2023  2022 1
 1749  2025  2024 1
 1750  2026  2025 1
 1751  2027  2025 1
 1752  2028  2025 1
 1753  2029  2028 1
 1754  2031  2030 1
 1755  2032  2031 1
 1756  2033  2031 1
 1757  2034  2031 1
 1758  2035  2034 1
 1759  2037  2036 1
 1760  2038  2037 1
 1761  2039  2037 1
 1762  2040  2037 1
 1763  2041  2040 1
 1764  2043  2042 1
 1765  2044  2043 1
 1766  2045  2043 1
 1767  2046  2043 1
 1768  2047  2046 1
 1769  2049  2048 1
 1770  2050  2049 1
 1771  2051  2049 1
 1772  2052  2049 1
 1773  2053  2052 1
 1774  2055  2054 1
 1775  2056  2055 1
 1776  2057  2055 1
 1777  2058  2055 1
 1778  2059  2058 1
 1779  2061  2060 1
 1780  2062  2061 1
 1781  2063  2061 1
 1782  2064  2061 1
 1783  2065  2064 1
 1784  2067  2066 1
 1785  2068  2067 1
 1786  2069  2067 1
 1787  2070  2067 1
 1788  2071  2070 1
 1789  2073  2072 1
 1790  2074  2073 1
 1791  2075  2073 1
 1792  2076  2073 1
 1793  2077  2076 1
 1794  2079  2078 1
 1795  2080  2079 1
 1796  2081  2079 1
 1797  2082  2079 1
 1798  2083  2082 1
 1799  2085  2084 1
 1800  2086  2085 1
 1801  2087  2085 1
 1802  2088  2085 1
 1803  2089  2088 1
 1804  2091  2090 1
 1805  2092  2091 1
 1806  2093  2091 1
 1807  2094  2091 1
 1808  2095  2094 1
 1809  2097  2096 1
 1810  2098  2097 1
 1811  2099  2097 1
 1812  2100  2097 1
 1813  2101  2100 1
 1814  2103  2102 1
 1815  2104  2103 1
 1816  2105  2103 1
 1817  2106  2103 1
 1818  2107  2106 1
 1819  2109  2108 1
 1820  2110  2109 1
 1821  2111  2109 1
 1822  2112  2109 1
 1823  2113  2112 1
 1824  2115  2114 1
 1825  2116  2115 1
 1826  2117  2115 1
 1827  2118  2115 1
 1828  2119  2118 1
 1829  2121  2120 1
 1830  2122  2121 1
 1831  2123  2121 1
 1832  2124  2121 1
 1833  2125  2124 1
 1834  2127  2126 1
 1835  2128  2127 1
 1836  2129  2127 1
 1837  2130  2127 1
 1838  2131  2130 1
 1839  2133  2132 1
 1840  2134  2133 1
 1841  2135  2133 1
 1842  2136  2133 1
 1843  2137  2136 1
 1844  2139  2138 1
 1845  2140  2139 1
 1846  2141  2139 1
 1847  2142  2139 1
 1848  2143  2142 1
 1849  2145  2144 1
 1850  2146  2145 1
 1851  2147  2145 1
 1852  2148  2145 1
 1853  2149  2148 1
 1854  2151  2150 1
 1855  2152  2151 1
 1856  2153  2151 1
 1857  2154  2151 1
 1858  2155  2154 1
 1859  2157  2156 1
 1860  2158  2157 1
 1861  2159  2157 1
 1862  2160  2157 1
 1863  2161  2160 1
 1864  2163  2162 1
 1865  2164  2163 1
 1866  2165  2163 1
 1867  2166  2163 1
 1868  2167  2166 1
 1869  2169  2168 1
 1870  2170  2169 1
 1871  2171  2169 1
 1872  2172  2169 1
 1873  2173  2172 1
 1874  2175  2174 1
 1875  2176  2175 1
 1876  2177  2175 1
 1877  2178  2175 1
 1878  2179  2178 1
 1879  2181  2180 1
 1880  2182  2181 1
 1881  2183  2181 1
 1882  2184  2181 1
 1883  2185  2184 1
 1884  2187  2186 1
 1885  2188  2187 1
 1886  2189  2187 1
 1887  2190  2187 1
 1888  2191  2190 1
 1889  2193  2192 1
 1890  2194  2193 1
 1891  2195  2193 1
 1892  2196  2193 1
 1893  2197  2196 1
 1894  2199  2198 1
 1895  2200  2199 1
 1896  2201  2199 1
 1897  2202  2199 1
 1898  2203  2202 1
 1899  2205  2204 1
 1900  2206  2205 1
 1901  2207  2205 1
 1902  2208  2205 1
 1903  2209  2208 1
 1904  2211  2210 1
 1905  2212  2211 1
 1906  2213  2211 1
 1907  2214  2211 1
 1908  2215  2214 1
 1909  2217  2216 1
 1910  2218  2217 1
 1911  2219  2217 1
 1912  2220  2217 1
 1913  2221  2220 1
 1914  2223  2222 1
 1915  2224  2223 1
 1916  2225  2223 1
 1917  2226  2223 1
 1918  2227  2226 1
 1919  2229  2228 1
 1920  2230  2229 1
 1921  2231  2229 1
 1922  2232  2229 1
 1923  2233  2232 1
 1924  2235  2234 1
 1925  2236  2235 1
 1926  2237  2235 1
 1927  2238  2235 1
 1928  2239  2238 1
 1929  2241  2240 1
 1930  2242  2241 1
 1931  2243  2241 1
 1932  2244  2241 1
 1933  2245  2244 1
 1934  2247  2246 1
 1935  2248  2247 1
 1936  2249  2247 1
 1937  2250  2247 1
 1938  2251  2250 1
 1939  2253  2252 1
 1940  2254  2253 1
 1941  2255  2253 1
 1942  2256  2253 1
 1943  2257  2256 1
 1944  2259  2258 1
 1945  2260  2259 1
 1946  2261  2259 1
 1947  2262  2259 1
 1948  2263  2262 1
 1949  2265  2264 1
 1950  2266  2265 1
 1951  2267  2265 1
 1952  2268  2265 1
 1953  2269  2268 1
 1954  2271  2270 1
 1955  2272  2271 1
 1956  2273  2271 1
 1957  2274  2271 1
 1958  2275  2274 1
 1959  2277  2276 1
 1960  2278  2277 1
 1961  2279  2277 1
 1962  2280  2277 1
 1963  2281  2280 1
 1964  2283  2282 1
 1965  2284  2283 1
 1966  2285  2283 1
 1967  2286  2283 1
 1968  2287  2286 1
 1969  2289  2288 1
 1970  2290  2289 1
 1971  2291  2289 1
 1972  2292  2289 1
 1973  2293  2292 1
 1974  2295  2294 1
 1975  2296  2295 1
 1976  2297  2295 1
 1977  2298  2295 1
 1978  2299  2298 1
 1979  2301  2300 1
 1980  2302  2301 1
 1981  2303  2301 1
 1982  2304  2301 1
 1983  2305  2304 1
 1984  2307  2306 1
 1985  2308  2307 1
 1986  2309  2307 1
 1987  2310  2307 1
 1988  2311  2310 1
 1989  2313  2312 1
 1990  2314  2313 1
 1991  2315  2313 1
 1992  2316  2313 1
 1993  2317  2316 1
 1994  2319  2318 1
 1995  2320  2319 1
 1996  2321  2319 1
 1997  2322  2319 1
 1998  2323  2322 1
 1999  2325  2324 1
 2000  2326  2325 1
 2001  2327  2325 1
 2002  2328  2325 1
 2003  2329  2328 1
 2004  2331  2330 1
 2005  2332  2331 1
 2006  2333  2331 1
 2007  2334  2331 1
 2008  2335  2334 1
 2009  2337  2336 1
 2010  2338  2337 1
 2011  2339  2337 1
 2012  2340  2337 1
 2013  2341  2340 1
 2014  2343  2342 1
 2015  2344  2343 1
 2016  2345  2343 1
 2017  2346  2343 1
 2018  2347  2346 1
 2019  2349  2348 1
 2020  2350  2349 1
 2021  2351  2349 1
 2022  2352  2349 1
 2023  2353  2352 1
 2024  2355  2354 1
 2025  2356  2355 1
 2026  2357  2355 1
 2027  2358  2355 1
 2028  2359  2358 1
 2029  2361  2360 1
 2030  2362  2361 1
 2031  2363  2361 1
 2032  2364  2361 1
 2033  2365  2364 1
 2034  2367  2366 1
 2035  2368  2367 1
 2036  2369  2367 1
 2037  2370  2367 1
 2038  2371  2370 1
 2039  2373  2372 1
 2040  2374  2373 1
 2041  2375  2373 1
 2042  2376  2373 1
 2043  2377  2376 1
 2044  2379  2378 1
 2045  2380  2379 1
 2046  2381  2379 1
 2047  2382  2379 1
 2048  2383  2382 1
 2049  2385  2384 1
 2050  2386  2385 1
 2051  2387  2385 1
 2052  2388  2385 1
 2053  2389  2388 1
 2054  2391  2390 1
 2055  2392  2391 1
 2056  2393  2391 1
 2057  2394  2391 1
 2058  2395  2394 1
 2059  2397  2396 1
 2060  2398  2397 1
 2061  2399  2397 1
 2062  2400  2397 1
 2063  2401  2400 1
 2064  2403  2402 1
 2065  2404  2403 1
 2066  2405  2403 1
 2067  2406  2403 1
 2068  2407  2406 1
 2069  2409  2408 1
 2070  2410  2409 1
 2071  2411  2409 1
 2072  2412  2409 1
 2073  2413  2412 1
 2074  2415  2414 1
 2075  2416  2415 1
 2076  2417  2415 1
 2077  2418  2415 1
 2078  2419  2418 1
 2079  2421  2420 1
 2080  2422  2421 1
 2081  2423  2421 1
 2082  2424  2421 1
 2083  2425  2424 1
 2084  2427  2426 1
 2085  2428  2427 1
 2086  2429  2427 1
 2087  2430  2427 1
 2088  2431  2430 1
 2089  2433  2432 1
 2090  2434  2433 1
 2091  2435  2433 1
 2092  2436  2433 1
 2093  2437  2436 1
 2094  2439  2438 1
 2095  2440  2439 1
 2096  2441  2439 1
 2097  2442  2439 1
 2098  2443  2442 1
 2099  2445  2444 1
 2100  2446  2445 1
 2101  2447  2445 1
 2102  2448  2445 1
 2103  2449  2448 1
 2104  2451  2450 1
 2105  2452  2451 1
 2106  2453  2451 1
 2107  2454  2451 1
 2108  2455  2454 1
 2109  2457  2456 1
 2110  2458  2457 1
 2111  2459  2457 1
 2112  2460  2457 1
 2113  2461  2460 1
 2114  2463  2462 1
 2115  2464  2463 1
 2116  2465  2463 1
 2117  2466  2463 1
 2118  2467  2466 1
 2119  2469  2468 1
 2120  2470  2469 1
 2121  2471  2469 1
 2122  2472  2469 1
 2123  2473  2472 1
 2124  2475  2474 1
 2125  2476  2475 1
 2126  2477  2475 1
 2127  2478  2475 1
 2128  2479  2478 1
 2129  2481  2480 1
 2130  2482  2481 1
 2131  2483  2481 1
 2132  2484  2481 1
 2133  2485  2484 1
 2134  2487  2486 1
 2135  2488  2487 1
 2136  2489  2487 1
 2137  2490  2487 1
 2138  2491  2490 1
 2139  2493  2492 1
 2140  2494  2493 1
 2141  2495  2493 1
 2142  2496  2493 1
 2143  2497  2496 1
 2144  2499  2498 1
 2145  2500  2499 1
 2146  2501  2499 1
 2147  2502  2499 1
 2148  2503  2502 1
 2149  2505  2504 1
 2150  2506  2505 1
 2151  2507  2505 1
 2152  2508  2505 1
 2153  2509  2508 1
 2154  2511  2510 1
 2155  2512  2511 1
 2156  2513  2511 1
 2157  2514  2511 1
 2158  2515  2514 1
 2159  2517  2516 1
 2160  2518  2517 1
 2161  2519  2517 1
 2162  2520  2517 1
 2163  2521  2520 1
 2164  2523  2522 1
 2165  2524  2523 1
 2166  2525  2523 1
 2167  2526  2523 1
 2168  2527  2526 1
 2169  2529  2528 1
 2170  2530  2529 1
 2171  2531  2529 1
 2172  2532  2529 1
 2173  2533  2532 1
 2174  2535  2534 1
 2175  2536  2535 1
 2176  2537  2535 1
 2177  2538  2535 1
 2178  2539  2538 1
 2179  2541  2540 1
 2180  2542  2541 1
 2181  2543  2541 1
 2182  2544  2541 1
 2183  2545  2544 1
 2184  2547  2546 1
 2185  2548  2547 1
 2186  2549  2547 1
 2187  2550  2547 1
 2188  2551  2550 1
 2189  2553  2552 1
 2190  2554  2553 1
 2191  2555  2553 1
 2192  2556  2553 1
 2193  2557  2556 1
 2194  2559  2558 1
 2195  2560  2559 1
 2196  2561  2559 1
 2197  2562  2559 1
 2198  2563  2562 1
 2199  2565  2564 1
 2200  2566  2565 1
 2201  2567  2565 1
 2202  2568  2565 1
 2203  2569  2568 1
 2204  2571  2570 1
 2205  2572  2571 1
 2206  2573  2571 1
 2207  2574  2571 1
 2208  2575  2574 1
 2209  2577  2576 1
 2210  2578  2577 1
 2211  2579  2577 1
 2212  2580  2577 1
 2213  2581  2580 1
 2214  2583  2582 1
 2215  2584  2583 1
 2216  2585  2583 1
 2217  2586  2583 1
 2218  2587  2586 1
 2219  2589  2588 1
 2220  2590  2589 1
 2221  2591  2589 1
 2222  2592  2589 1
 2223  2593  2592 1
 2224  2595  2594 1
 2225  2596  2595 1
 2226  2597  2595 1
 2227  2598  2595 1
 2228  2599  2598 1
 2229  2601  2600 1
 2230  2602  2601 1
 2231  2603  2601 1
 2232  2604  2601 1
 2233  2605  2604 1
 2234  2607  2606 1
 2235  2608  2607 1
 2236  2609  2607 1
 2237  2610  2607 1
 2238  2611  2610 1
 2239  2613  2612 1
 2240  2614  2613 1
 2241  2615  2613 1
 2242  2616  2613 1
 2243  2617  2616 1
 2244  2619  2618 1
 2245  2620  2619 1
 2246  2621  2619 1
 2247  2622  2619 1
 2248  2623  2622 1
 2249  2625  2624 1
 2250  2626  2625 1
 2251  2627  2625 1
 2252  2628  2625 1
 2253  2629  2628 1
 2254  2631  2630 1
 2255  2632  2631 1
 2256  2633  2631 1
 2257  2634  2631 1
 2258  2635  2634 1
 2259  2637  2636 1
 2260  2638  2637 1
 2261  2639  2637 1
 2262  2640  2637 1
 2263  2641  2640 1
 2264  2643  2642 1
 2265  2644  2643 1
 2266  2645  2643 1
 2267  2646  2643 1
 2268  2647  2646 1
 2269  2649  2648 1
 2270  2650  2649 1
 2271  2651  2649 1
 2272  2652  2649 1
 2273  2653  2652 1
 2274  2655  2654 1
 2275  2656  2655 1
 2276  2657  2655 1
 2277  2658  2655 1
 2278  2659  2658 1
 2279  2661  2660 1
 2280  2662  2661 1
 2281  2663  2661 1
 2282  2664  2661 1
 2283  2665  2664 1
 2284  2667  2666 1
 2285  2668  2667 1
 2286  2669  2667 1
 2287  2670  2667 1
 2288  2671  2670 1
 2289  2673  2672 1
 2290  2674  2673 1
 2291  2675  2673 1
 2292  2676  2673 1
 2293  2677  2676 1
 2294  2679  2678 1
 2295  2680  2679 1
 2296  2681  2679 1
 2297  2682  2679 1
 2298  2683  2682 1
 2299  2685  2684 1
 2300  2686  2685 1
 2301  2687  2685 1
 2302  2688  2685 1
 2303  2689  2688 1
 2304  2691  2690 1
 2305  2692  2691 1
 2306  2693  2691 1
 2307  2694  2691 1
 2308  2695  2694 1
 2309  2697  2696 1
 2310  2698  2697 1
 2311  2699  2697 1
 2312  2700  2697 1
 2313  2701  2700 1
 2314  2703  2702 1
 2315  2704  2703 1
 2316  2705  2703 1
 2317  2706  2703 1
 2318  2707  2706 1
 2319  2709  2708 1
 2320  2710  2709 1
 2321  2711  2709 1
 2322  2712  2709 1
 2323  2713  2712 1
 2324  2715  2714 1
 2325  2716  2715 1
 2326  2717  2715 1
 2327  2718  2715 1
 2328  2719  2718 1
 2329  2721  2720 1
 2330  2722  2721 1
 2331  2723  2721 1
 2332  2724  2721 1
 2333  2725  2724 1
 2334  2727  2726 1
 2335  2728  2727 1
 2336  2729  2727 1
 2337  2730  2727 1
 2338  2731  2730 1
 2339  2733  2732 1
 2340  2734  2733 1
 2341  2735  2733 1
 2342  2736  2733 1
 2343  2737  2736 1
 2344  2739  2738 1
 2345  2740  2739 1
 2346  2741  2739 1
 2347  2742  2739 1
 2348  2743  2742 1
 2349  2745  2744 1
 2350  2746  2745 1
 2351  2747  2745 1
 2352  2748  2745 1
 2353  2749  2748 1
 2354  2751  2750 1
 2355  2752  2751 1
 2356  2753  2751 1
 2357  2754  2751 1
 2358  2755  2754 1
 2359  2757  2756 1
 2360  2758  2757 1
 2361  2759  2757 1
 2362  2760  2757 1
 2363  2761  2760 1
 2364  2763  2762 1
 2365  2764  2763 1
 2366  2765  2763 1
 2367  2766  2763 1
 2368  2767  2766 1
 2369  2769  2768 1
 2370  2770  2769 1
 2371  2771  2769 1
 2372  2772  2769 1
 2373  2773  2772 1
 2374  2775  2774 1
 2375  2776  2775 1
 2376  2777  2775 1
 2377  2778  2775 1
 2378  2779  2778 1
 2379  2781  2780 1
 2380  2782  2781 1
 2381  2783  2781 1
 2382  2784  2781 1
 2383  2785  2784 1
 2384  2787  2786 1
 2385  2788  2787 1
 2386  2789  2787 1
 2387  2790  2787 1
 2388  2791  2790 1
 2389  2793  2792 1
 2390  2794  2793 1
 2391  2795  2793 1
 2392  2796  2793 1
 2393  2797  2796 1
 2394  2799  2798 1
 2395  2800  2799 1
 2396  2801  2799 1
 2397  2802  2799 1
 2398  2803  2802 1
 2399  2805  2804 1
 2400  2806  2805 1
 2401  2807  2805 1
 2402  2808  2805 1
 2403  2809  2808 1
 2404  2811  2810 1
 2405  2812  2811 1
 2406  2813  2811 1
 2407  2814  2811 1
 2408  2815  2814 1
 2409  2817  2816 1
 2410  2818  2817 1
 2411  2819  2817 1
 2412  2820  2817 1
 2413  2821  2820 1
 2414  2823  2822 1
 2415  2824  2823 1
 2416  2825  2823 1
 2417  2826  2823 1
 2418  2827  2826 1
 2419  2829  2828 1
 2420  2830  2829 1
 2421  2831  2829 1
 2422  2832  2829 1
 2423  2833  2832 1
 2424  2835  2834 1
 2425  2836  2835 1
 2426  2837  2835 1
 2427  2838  2835 1
 2428  2839  2838 1
 2429  2841  2840 1
 2430  2842  2841 1
 2431  2843  2841 1
 2432  2844  2841 1
 2433  2845  2844 1
 2434  2847  2846 1
 2435  2848  2847 1
 2436  2849  2847 1
 2437  2850  2847 1
 2438  2851  2850 1
 2439  2853  2852 1
 2440  2854  2853 1
 2441  2855  2853 1
 2442  2856  2853 1
 2443  2857  2856 1
 2444  2859  2858 1
 2445  2860  2859 1
 2446  2861  2859 1
 2447  2862  2859 1
 2448  2863  2862 1
 2449  2865  2864 1
 2450  2866  2865 1
 2451  2867  2865 1
 2452  2868  2865 1
 2453  2869  2868 1
 2454  2871  2870 1
 2455  2872  2871 1
 2456  2873  2871 1
 2457  2874  2871 1
 2458  2875  2874 1
 2459  2877  2876 1
 2460  2878  2877 1
 2461  2879  2877 1
 2462  2880  2877 1
 2463  2881  2880 1
 2464  2883  2882 1
 2465  2884  2883 1
 2466  2885  2883 1
 2467  2886  2883 1
 2468  2887  2886 1
 2469  2889  2888 1
 2470  2890  2889 1
 2471  2891  2889 1
 2472  2892  2889 1
 2473  2893  2892 1
 2474  2895  2894 1
 2475  2896  2895 1
 2476  2897  2895 1
 2477  2898  2895 1
 2478  2899  2898 1
 2479  2901  2900 1
 2480  2902  2901 1
 2481  2903  2901 1
 2482  2904  2901 1
 2483  2905  2904 1
 2484  2907  2906 1
 2485  2908  2907 1
 2486  2909  2907 1
 2487  2910  2907 1
 2488  2911  2910 1
 2489  2913  2912 1
 2490  2914  2913 1
 2491  2915  2913 1
 2492  2916  2913 1
 2493  2917  2916 1
 2494  2919  2918 1
 2495  2920  2919 1
 2496  2921  2919 1
 2497  2922  2919 1
 2498  2923  2922 1
 2499  2925  2924 1
 2500  2926  2925 1
 2501  2927  2925 1
 2502  2928  2925 1
 2503  2929  2928 1
 2504  2931  2930 1
 2505  2932  2931 1
 2506  2933  2931 1
 2507  2934  2931 1
 2508  2935  2934 1
 2509  2937  2936 1
 2510  2938  2937 1
 2511  2939  2937 1
 2512  2940  2937 1
 2513  2941  2940 1
 2514  2943  2942 1
 2515  2944  2943 1
 2516  2945  2943 1
 2517  2946  2943 1
 2518  2947  2946 1
 2519  2949  2948 1
 2520  2950  2949 1
 2521  2951  2949 1
 2522  2952  2949 1
 2523  2953  2952 1
 2524  2955  2954 1
 2525  2956  2955 1
 2526  2957  2955 1
 2527  2958  2955 1
 2528  2959  2958 1
 2529  2961  2960 1
 2530  2962  2961 1
 2531  2963  2961 1
 2532  2964  2961 1
 2533  2965  2964 1
 2534  2967  2966 1
 2535  2968  2967 1
 2536  2969  2967 1
 2537  2970  2967 1
 2538  2971  2970 1
 2539  2973  2972 1
 2540  2974  2973 1
 2541  2975  2973 1
 2542  2976  2973 1
 2543  2977  2976 1
 2544  2979  2978 1
 2545  2980  2979 1
 2546  2981  2979 1
 2547  2982  2979 1
 2548  2983  2982 1
 2549  2985  2984 1
 2550  2986  2985 1
 2551  2987  2985 1
 2552  2988  2985 1
 2553  2989  2988 1
 2554  2991  2990 1
 2555  2992  2991 1
 2556  2993  2991 1
 2557  2994  2991 1
 2558  2995  2994 1
 2559  2997  2996 1
 2560  2998  2997 1
 2561  2999  2997 1
 2562  3000  2997 1
 2563  3001  3000 1
 2564  3003  3002 1
 2565  3004  3003 1
 2566  3005  3003 1
 2567  3006  3003 1
 2568  3007  3006 1
 2569  3009  3008 1
 2570  3010  3009 1
 2571  3011  3009 1
 2572  3012  3009 1
 2573  3013  3012 1
 2574  3015  3014 1
 2575  3016  3015 1
 2576  3017  3015 1
 2577  3018  3015 1
 2578  3019  3018 1
 2579  3021  3020 1
 2580  3022  3021 1
 2581  3023  3021 1
 2582  3024  3021 1
 2583  3025  3024 1
 2584  3027  3026 1
 2585  3028  3027 1
 2586  3029  3027 1
 2587  3030  3027 1
 2588  3031  3030 1
 2589  3033  3032 1
 2590  3034  3033 1
 2591  3035  3033 1
 2592  3036  3033 1
 2593  3037  3036 1
 2594  3039  3038 1
 2595  3040  3039 1
 2596  3041  3039 1
 2597  3042  3039 1
 2598  3043  3042 1
 2599  3045  3044 1
 2600  3046  3045 1
 2601  3047  3045 1
 2602  3048  3045 1
 2603  3049  3048 1
 2604  3051  3050 1
 2605  3052  3051 1
 2606  3053  3051 1
 2607  3054  3051 1
 2608  3055  3054 1
 2609  3057  3056 1
 2610  3058  3057 1
 2611  3059  3057 1
 2612  3060  3057 1
 2613  3061  3060 1
 2614  3063  3062 1
 2615  3064  3063 1
 2616  3065  3063 1
 2617  3066  3063 1
 2618  3067  3066 1
 2619  3069  3068 1
 2620  3070  3069 1
 2621  3071  3069 1
 2622  3072  3069 1
 2623  3073  3072 1
 2624  3075  3074 1
 2625  3076  3075 1
 2626  3077  3075 1
 2627  3078  3075 1
 2628  3079  3078 1
 2629  3081  3080 1
 2630  3082  3081 1
 2631  3083  3081 1
 2632  3084  3081 1
 2633  3085  3084 1
 2634  3087  3086 1
 2635  3088  3087 1
 2636  3089  3087 1
 2637  3090  3087 1
 2638  3091  3090 1
 2639  3093  3092 1
 2640  3094  3093 1
 2641  3095  3093 1
 2642  3096  3093 1
 2643  3097  3096 1
 2644  3099  3098 1
 2645  3100  3099 1
 2646  3101  3099 1
 2647  3102  3099 1
 2648  3103  3102 1
 2649  3105  3104 1
 2650  3106  3105 1
 2651  3107  3105 1
 2652  3108  3105 1
 2653  3109  3108 1
 2654  3111  3110 1
 2655  3112  3111 1
 2656  3113  3111 1
 2657  3114  3111 1
 2658  3115  3114 1
 2659  3117  3116 1
 2660  3118  3117 1
 2661  3119  3117 1
 2662  3120  3117 1
 2663  3121  3120 1
 2664  3123  3122 1
 2665  3124  3123 1
 2666  3125  3123 1
 2667  3126  3123 1
 2668  3127  3126 1
 2669  3129  3128 1
 2670  3130  3129 1
 2671  3131  3129 1
 2672  3132  3129 1
 2673  3133  3132 1
 2674  3135  3134 1
 2675  3136  3135 1
 2676  3137  3135 1
 2677  3138  3135 1
 2678  3139  3138 1
 2679  3141  3140 1
 2680  3142  3141 1
 2681  3143  3141 1
 2682  3144  3141 1
 2683  3145  3144 1
 2684  3147  3146 1
 2685  3148  3147 1
 2686  3149  3147 1
 2687  3150  3147 1
 2688  3151  3150 1
 2689  3153  3152 1
 2690  3154  3153 1
 2691  3155  3153 1
 2692  3156  3153 1
 2693  3157  3156 1
 2694  3159  3158 1
 2695  3160  3159 1
 2696  3161  3159 1
 2697  3162  3159 1
 2698  3163  3162 1
 2699  3165  3164 1
 2700  3166  3165 1
 2701  3167  3165 1
 2702  3168  3165 1
 2703  3169  3168 1
 2704  3171  3170 1
 2705  3172  3171 1
 2706  3173  3171 1
 2707  3174  3171 1
 2708  3175  3174 1
 2709  3177  3176 1
 2710  3178  3177 1
 2711  3179  3177 1
 2712  3180  3177 1
 2713  3181  3180 1
 2714  3183  3182 1
 2715  3184  3183 1
 2716  3185  3183 1
 2717  3186  3183 1
 2718  3187  3186 1
 2719  3189  3188 1
 2720  3190  3189 1
 2721  3191  3189 1
 2722  3192  3189 1
 2723  3193  3192 1
 2724  3195  3194 1
 2725  3196  3195 1
 2726  3197  3195 1
 2727  3198  3195 1
 2728  3199  3198 1
 2729  3201  3200 1
 2730  3202  3201 1
 2731  3203  3201 1
 2732  3204  3201 1
 2733  3205  3204 1
 2734  3207  3206 1
 2735  3208  3207 1
 2736  3209  3207 1
 2737  3210  3207 1
 2738  3211  3210 1
 2739  3213  3212 1
 2740  3214  3213 1
 2741  3215  3213 1
 2742  3216  3213 1
 2743  3217  3216 1
 2744  3219  3218 1
 2745  3220  3219 1
 2746  3221  3219 1
 2747  3222  3219 1
 2748  3223  3222 1
 2749  3225  3224 1
 2750  3226  3225 1
 2751  3227  3225 1
 2752  3228  3225 1
 2753  3229  3228 1
 2754  3231  3230 1
 2755  3232  3231 1
 2756  3233  3231 1
 2757  3234  3231 1
 2758  3235  3234 1
 2759  3237  3236 1
 2760  3238  3237 1
 2761  3239  3237 1
 2762  3240  3237 1
 2763  3241  3240 1
 2764  3243  3242 1
 2765  3244  3243 1
 2766  3245  3243 1
 2767  3246  3243 1
 2768  3247  3246 1
 2769  3249  3248 1
 2770  3250  3249 1
 2771  3251  3249 1
 2772  3252  3249 1
 2773  3253  3252 1
 2774  3255  3254 1
 2775  3256  3255 1
 2776  3257  3255 1
 2777  3258  3255 1
 2778  3259  3258 1
 2779  3261  3260 1
 2780  3262  3261 1
 2781  3263  3261 1
 2782  3264  3261 1
 2783  3265  3264 1
 2784  3267  3266 1
 2785  3268  3267 1
 2786  3269  3267 1
 2787  3270  3267 1
 2788  3271  3270 1
 2789  3273  3272 1
 2790  3274  3273 1
 2791  3275  3273 1
 2792  3276  3273 1
 2793  3277  3276 1
 2794  3279  3278 1
 2795  3280  3279 1
 2796  3281  3279 1
 2797  3282  3279 1
 2798  3283  3282 1
 2799  3285  3284 1
 2800  3286  3285 1
 2801  3287  3285 1
 2802  3288  3285 1
 2803  3289  3288 1
 2804  3291  3290 1
 2805  3292  3291 1
 2806  3293  3291 1
 2807  3294  3291 1
 2808  3295  3294 1
 2809  3297  3296 1
 2810  3298  3297 1
 2811  3299  3297 1
 2812  3300  3297 1
 2813  3301  3300 1
 2814  3303  3302 1
 2815  3304  3303 1
 2816  3305  3303 1
 2817  3306  3303 1
 2818  3307  3306 1
 2819  3309  3308 1
 2820  3310  3309 1
 2821  3311  3309 1
 2822  3312  3309 1
 2823  3313  3312 1
 2824  3315  3314 1
 2825  3316  3315 1
 2826  3317  3315 1
 2827  3318  3315 1
 2828  3319  3318 1
 2829  3321  3320 1
 2830  3322  3321 1
 2831  3323  3321 1
 2832  3324  3321 1
 2833  3325  3324 1
 2834  3327  3326 1
 2835  3328  3327 1
 2836  3329  3327 1
 2837  3330  3327 1
 2838  3331  3330 1
 2839  3333  3332 1
 2840  3334  3333 1
 2841  3335  3333 1
 2842  3336  3333 1
 2843  3337  3336 1
 2844  3339  3338 1
 2845  3340  3339 1
 2846  3341  3339 1
 2847  3342  3339 1
 2848  3343  3342 1
 2849  3345  3344 1
 2850  3346  3345 1
 2851  3347  3345 1
 2852  3348  3345 1
 2853  3349  3348 1
 2854  3351  3350 1
 2855  3352  3351 1
 2856  3353  3351 1
 2857  3354  3351 1
 2858  3355  3354 1
 2859  3357  3356 1
 2860  3358  3357 1
 2861  3359  3357 1
 2862  3360  3357 1
 2863  3361  3360 1
 2864  3363  3362 1
 2865  3364  3363 1
 2866  3365  3363 1
 2867  3366  3363 1
 2868  3367  3366 1
 2869  3369  3368 1
 2870  3370  3369 1
 2871  3371  3369 1
 2872  3372  3369 1
 2873  3373  3372 1
 2874  3375  3374 1
 2875  3376  3375 1
 2876  3377  3375 1
 2877  3378  3375 1
 2878  3379  3378 1
 2879  3381  3380 1
 2880  3382  3381 1
 2881  3383  3381 1
 2882  3384  3381 1
 2883  3385  3384 1
 2884  3387  3386 1
 2885  3388  3387 1
 2886  3389  3387 1
 2887  3390  3387 1
 2888  3391  3390 1
 2889  3393  3392 1
 2890  3394  3393 1
 2891  3395  3393 1
 2892  3396  3393 1
 2893  3397  3396 1
 2894  3399  3398 1
 2895  3400  3399 1
 2896  3401  3399 1
 2897  3402  3399 1
 2898  3403  3402 1
 2899  3405  3404 1
 2900  3406  3405 1
 2901  3407  3405 1
 2902  3408  3405 1
 2903  3409  3408 1
 2904  3411  3410 1
 2905  3412  3411 1
 2906  3413  3411 1
 2907  3414  3411 1
 2908  3415  3414 1
 2909  3417  3416 1
 2910  3418  3417 1
 2911  3419  3417 1
 2912  3420  3417 1
 2913  3421  3420 1
 2914  3423  3422 1
 2915  3424  3423 1
 2916  3425  3423 1
 2917  3426  3423 1
 2918  3427  3426 1
 2919  3429  3428 1
 2920  3430  3429 1
 2921  3431  3429 1
 2922  3432  3429 1
 2923  3433  3432 1
 2924  3435  3434 1
 2925  3436  3435 1
 2926  3437  3435 1
 2927  3438  3435 1
 2928  3439  3438 1
 2929  3441  3440 1
 2930  3442  3441 1
 2931  3443  3441 1
 2932  3444  3441 1
 2933  3445  3444 1
 2934  3447  3446 1
 2935  3448  3447 1
 2936  3449  3447 1
 2937  3450  3447 1
 2938  3451  3450 1
 2939  3453  3452 1
 2940  3454  3453 1
 2941  3455  3453 1
 2942  3456  3453 1
 2943  3457  3456 1
 2944  3459  3458 1
 2945  3460  3459 1
 2946  3461  3459 1
 2947  3462  3459 1
 2948  3463  3462 1
 2949  3465  3464 1
 2950  3466  3465 1
 2951  3467  3465 1
 2952  3468  3465 1
 2953  3469  3468 1
 2954  3471  3470 1
 2955  3472  3471 1
 2956  3473  3471 1
 2957  3474  3471 1
 2958  3475  3474 1
 2959  3477  3476 1
 2960  3478  3477 1
 2961  3479  3477 1
 2962  3480  3477 1
 2963  3481  3480 1
 2964  3483  3482 1
 2965  3484  3483 1
 2966  3485  3483 1
 2967  3486  3483 1
 2968  3487  3486 1
 2969  3489  3488 1
 2970  3490  3489 1
 2971  3491  3489 1
 2972  3492  3489 1
 2973  3493  3492 1
 2974  3495  3494 1
 2975  3496  3495 1
 2976  3497  3495 1
 2977  3498  3495 1
 2978  3499  3498 1
 2979  3501  3500 1
 2980  3502  3501 1
 2981  3503  3501 1
 2982  3504  3501 1
 2983  3505  3504 1
 2984  3507  3506 1
 2985  3508  3507 1
 2986  3509  3507 1
 2987  3510  3507 1
 2988  3511  3510 1
 2989  3513  3512 1
 2990  3514  3513 1
 2991  3515  3513 1
 2992  3516  3513 1
 2993  3517  3516 1
 2994  3519  3518 1
 2995  3520  3519 1
 2996  3521  3519 1
 2997  3522  3519 1
 2998  3523  3522 1
 2999  3525  3524 1
 3000  3526  3525 1
 3001  3527  3525 1
 3002  3528  3525 1
 3003  3529  3528 1
 3004  3531  3530 1
 3005  3532  3531 1
 3006  3533  3531 1
 3007  3534  3531 1
 3008  3535  3534 1
 3009  3537  3536 1
 3010  3538  3537 1
 3011  3539  3537 1
 3012  3540  3537 1
 3013  3541  3540 1
 3014  3543  3542 1
 3015  3544  3543 1
 3016  3545  3543 1
 3017  3546  3543 1
 3018  3547  3546 1
 3019  3549  3548 1
 3020  3550  3549 1
 3021  3551  3549 1
 3022  3552  3549 1
 3023  3553  3552 1
 3024  3555  3554 1
 3025  3556  3555 1
 3026  3557  3555 1
 3027  3558  3555 1
 3028  3559  3558 1
 3029  3561  3560 1
 3030  3562  3561 1
 3031  3563  3561 1
 3032  3564  3561 1
 3033  3565  3564 1
 3034  3567  3566 1
 3035  3568  3567 1
 3036  3569  3567 1
 3037  3570  3567 1
 3038  3571  3570 1
 3039  3573  3572 1
 3040  3574  3573 1
 3041  3575  3573 1
 3042  3576  3573 1
 3043  3577  3576 1
 3044  3579  3578 1
 3045  3580  3579 1
 3046  3581  3579 1
 3047  3582  3579 1
 3048  3583  3582 1
 3049  3585  3584 1
 3050  3586  3585 1
 3051  3587  3585 1
 3052  3588  3585 1
 3053  3589  3588 1
 3054  3591  3590 1
 3055  3592  3591 1
 3056  3593  3591 1
 3057  3594  3591 1
 3058  3595  3594 1
 3059  3597  3596 1
 3060  3598  3597 1
 3061  3599  3597 1
 3062  3600  3597 1
 3063  3601  3600 1
 3064  3603  3602 1
 3065  3604  3603 1
 3066  3605  3603 1
 3067  3606  3603 1
 3068  3607  3606 1
 3069  3609  3608 1
 3070  3610  3609 1
 3071  3611  3609 1
 3072  3612  3609 1
 3073  3613  3612 1
 3074  3615  3614 1
 3075  3616  3615 1
 3076  3617  3615 1
 3077  3618  3615 1
 3078  3619  3618 1
 3079  3621  3620 1
 3080  3622  3621 1
 3081  3623  3621 1
 3082  3624  3621 1
 3083  3625  3624 1
 3084  3627  3626 1
 3085  3628  3627 1
 3086  3629  3627 1
 3087  3630  3627 1
 3088  3631  3630 1
 3089  3633  3632 1
 3090  3634  3633 1
 3091  3635  3633 1
 3092  3636  3633 1
 3093  3637  3636 1
 3094  3639  3638 1
 3095  3640  3639 1
 3096  3641  3639 1
 3097  3642  3639 1
 3098  3643  3642 1
 3099  3645  3644 1
 3100  3646  3645 1
 3101  3647  3645 1
 3102  3648  3645 1
 3103  3649  3648 1
 3104  3651  3650 1
 3105  3652  3651 1
 3106  3653  3651 1
 3107  3654  3651 1
 3108  3655  3654 1
 3109  3657  3656 1
 3110  3658  3657 1
 3111  3659  3657 1
 3112  3660  3657 1
 3113  3661  3660 1
 3114  3663  3662 1
 3115  3664  3663 1
 3116  3665  3663 1
 3117  3666  3663 1
 3118  3667  3666 1
 3119  3669  3668 1
 3120  3670  3669 1
 3121  3671  3669 1
 3122  3672  3669 1
 3123  3673  3672 1
 3124  3675  3674 1
 3125  3676  3675 1
 3126  3677  3675 1
 3127  3678  3675 1
 3128  3679  3678 1
 3129  3681  3680 1
 3130  3682  3681 1
 3131  3683  3681 1
 3132  3684  3681 1
 3133  3685  3684 1
 3134  3687  3686 1
 3135  3688  3687 1
 3136  3689  3687 1
 3137  3690  3687 1
 3138  3691  3690 1
 3139  3693  3692 1
 3140  3694  3693 1
 3141  3695  3693 1
 3142  3696  3693 1
 3143  3697  3696 1
 3144  3699  3698 1
 3145  3700  3699 1
 3146  3701  3699 1
 3147  3702  3699 1
 3148  3703  3702 1
 3149  3705  3704 1
 3150  3706  3705 1
 3151  3707  3705 1
 3152  3708  3705 1
 3153  3709  3708 1
 3154  3711  3710 1
 3155  3712  3711 1
 3156  3713  3711 1
 3157  3714  3711 1
 3158  3715  3714 1
 3159  3717  3716 1
 3160  3718  3717 1
 3161  3719  3717 1
 3162  3720  3717 1
 3163  3721  3720 1
 3164  3723  3722 1
 3165  3724  3723 1
 3166  3725  3723 1
 3167  3726  3723 1
 3168  3727  3726 1
 3169  3729  3728 1
 3170  3730  3729 1
 3171  3731  3729 1
 3172  3732  3729 1
 3173  3733  3732 1
 3174  3735  3734 1
 3175  3736  3735 1
 3176  3737  3735 1
 3177  3738  3735 1
 3178  3739  3738 1
 3179  3741  3740 1
 3180  3742  3741 1
 3181  3743  3741 1
 3182  3744  3741 1
 3183  3745  3744 1
 3184  3747  3746 1
 3185  3748  3747 1
 3186  3749  3747 1
 3187  3750  3747 1
 3188  3751  3750 1
 3189  3753  3752 1
 3190  3754  3753 1
 3191  3755  3753 1
 3192  3756  3753 1
 3193  3757  3756 1
 3194  3759  3758 1
 3195  3760  3759 1
 3196  3761  3759 1
 3197  3762  3759 1
 3198  3763  3762 1
 3199  3765  3764 1
 3200  3766  3765 1
 3201  3767  3765 1
 3202  3768  3765 1
 3203  3769  3768 1
 3204  3771  3770 1
 3205  3772  3771 1
 3206  3773  3771 1
 3207  3774  3771 1
 3208  3775  3774 1
 3209  3777  3776 1
 3210  3778  3777 1
 3211  3779  3777 1
 3212  3780  3777 1
 3213  3781  3780 1
 3214  3783  3782 1
 3215  3784  3783 1
 3216  3785  3783 1
 3217  3786  3783 1
 3218  3787  3786 1
 3219  3789  3788 1
 3220  3790  3789 1
 3221  3791  3789 1
 3222  3792  3789 1
 3223  3793  3792 1
 3224  3795  3794 1
 3225  3796  3795 1
 3226  3797  3795 1
 3227  3798  3795 1
 3228  3799  3798 1
 3229  3801  3800 1
 3230  3802  3801 1
 3231  3803  3801 1
 3232  3804  3801 1
 3233  3805  3804 1
 3234  3807  3806 1
 3235  3808  3807 1
 3236  3809  3807 1
 3237  3810  3807 1
 3238  3811  3810 1
 3239  3813  3812 1
 3240  3814  3813 1
 3241  3815  3813 1
 3242  3816  3813 1
 3243  3817  3816 1
 3244  3819  3818 1
 3245  3820  3819 1
 3246  3821  3819 1
 3247  3822  3819 1
 3248  3823  3822 1
 3249  3825  3824 1
 3250  3826  3825 1
 3251  3827  3825 1
 3252  3828  3825 1
 3253  3829  3828 1
 3254  3831  3830 1
 3255  3832  3831 1
 3256  3833  3831 1
 3257  3834  3831 1
 3258  3835  3834 1
 3259  3837  3836 1
 3260  3838  3837 1
 3261  3839  3837 1
 3262  3840  3837 1
 3263  3841  3840 1
 3264  3843  3842 1
 3265  3844  3843 1
 3266  3845  3843 1
 3267  3846  3843 1
 3268  3847  3846 1
 3269  3849  3848 1
 3270  3850  3849 1
 3271  3851  3849 1
 3272  3852  3849 1
 3273  3853  3852 1
 3274  3855  3854 1
 3275  3856  3855 1
 3276  3857  3855 1
 3277  3858  3855 1
 3278  3859  3858 1
 3279  3861  3860 1
 3280  3862  3861 1
 3281  3863  3861 1
 3282  3864  3861 1
 3283  3865  3864 1
 3284  3867  3866 1
 3285  3868  3867 1
 3286  3869  3867 1
 3287  3870  3867 1
 3288  3871  3870 1
 3289  3873  3872 1
 3290  3874  3873 1
 3291  3875  3873 1
 3292  3876  3873 1
 3293  3877  3876 1
 3294  3879  3878 1
 3295  3880  3879 1
 3296  3881  3879 1
 3297  3882  3879 1
 3298  3883  3882 1
 3299  3885  3884 1
 3300  3886  3885 1
 3301  3887  3885 1
 3302  3888  3885 1
 3303  3889  3888 1
 3304  3891  3890 1
 3305  3892  3891 1
 3306  3893  3891 1
 3307  3894  3891 1
 3308  3895  3894 1
 3309  3897  3896 1
 3310  3898  3897 1
 3311  3899  3897 1
 3312  3900  3897 1
 3313  3901  3900 1
 3314  3903  3902 1
 3315  3904  3903 1
 3316  3905  3903 1
 3317  3906  3903 1
 3318  3907  3906 1
 3319  3909  3908 1
 3320  3910  3909 1
 3321  3911  3909 1
 3322  3912  3909 1
 3323  3913  3912 1
 3324  3915  3914 1
 3325  3916  3915 1
 3326  3917  3915 1
 3327  3918  3915 1
 3328  3919  3918 1
 3329  3921  3920 1
 3330  3922  3921 1
 3331  3923  3921 1
 3332  3924  3921 1
 3333  3925  3924 1
 3334  3927  3926 1
 3335  3928  3927 1
 3336  3929  3927 1
 3337  3930  3927 1
 3338  3931  3930 1
 3339  3933  3932 1
 3340  3934  3933 1
 3341  3935  3933 1
 3342  3936  3933 1
 3343  3937  3936 1
 3344  3939  3938 1
 3345  3940  3939 1
 3346  3941  3939 1
 3347  3942  3939 1
 3348  3943  3942 1
 3349  3945  3944 1
 3350  3946  3945 1
 3351  3947  3945 1
 3352  3948  3945 1
 3353  3949  3948 1
 3354  3951  3950 1
 3355  3952  3951 1
 3356  3953  3951 1
 3357  3954  3951 1
 3358  3955  3954 1
 3359  3957  3956 1
 3360  3958  3957 1
 3361  3959  3957 1
 3362  3960  3957 1
 3363  3961  3960 1
 3364  3963  3962 1
 3365  3964  3963 1
 3366  3965  3963 1
 3367  3966  3963 1
 3368  3967  3966 1
 3369  3969  3968 1
 3370  3970  3969 1
 3371  3971  3969 1
 3372  3972  3969 1
 3373  3973  3972 1
 3374  3975  3974 1
 3375  3976  3975 1
 3376  3977  3975 1
 3377  3978  3975 1
 3378  3979  3978 1
 3379  3981  3980 1
 3380  3982  3981 1
 3381  3983  3981 1
 3382  3984  3981 1
 3383  3985  3984 1
 3384  3987  3986 1
 3385  3988  3987 1
 3386  3989  3987 1
 3387  3990  3987 1
 3388  3991  3990 1
 3389  3993  3992 1
 3390  3994  3993 1
 3391  3995  3993 1
 3392  3996  3993 1
 3393  3997  3996 1
 3394  3999  3998 1
 3395  4000  3999 1
 3396  4001  3999 1
 3397  4002  3999 1
 3398  4003  4002 1
 3399  4005  4004 1
 3400  4006  4005 1
 3401  4007  4005 1
 3402  4008  4005 1
 3403  4009  4008 1
 3404  4011  4010 1
 3405  4012  4011 1
 3406  4013  4011 1
 3407  4014  4011 1
 3408  4015  4014 1
 3409  4017  4016 1
 3410  4018  4017 1
 3411  4019  4017 1
 3412  4020  4017 1
 3413  4021  4020 1
 3414  4023  4022 1
 3415  4024  4023 1
 3416  4025  4023 1
 3417  4026  4023 1
 3418  4027  4026 1
 3419  4029  4028 1
 3420  4030  4029 1
 3421  4031  4029 1
 3422  4032  4029 1
 3423  4033  4032 1
 3424  4035  4034 1
 3425  4036  4035 1
 3426  4037  4035 1
 3427  4038  4035 1
 3428  4039  4038 1
 3429  4041  4040 1
 3430  4042  4041 1
 3431  4043  4041 1
 3432  4044  4041 1
 3433  4045  4044 1
 3434  4047  4046 1
 3435  4048  4047 1
 3436  4049  4047 1
 3437  4050  4047 1
 3438  4051  4050 1
 3439  4053  4052 1
 3440  4054  4053 1
 3441  4055  4053 1
 3442  4056  4053 1
 3443  4057  4056 1
 3444  4059  4058 1
 3445  4060  4059 1
 3446  4061  4059 1
 3447  4062  4059 1
 3448  4063  4062 1
 3449  4065  4064 1
 3450  4066  4065 1
 3451  4067  4065 1
 3452  4068  4065 1
 3453  4069  4068 1
 3454  4071  4070 1
 3455  4072  4071 1
 3456  4073  4071 1
 3457  4074  4071 1
 3458  4075  4074 1
 3459  4077  4076 1
 3460  4078  4077 1
 3461  4079  4077 1
 3462  4080  4077 1
 3463  4081  4080 1
 3464  4083  4082 1
 3465  4084  4083 1
 3466  4085  4083 1
 3467  4086  4083 1
 3468  4087  4086 1
 3469  4089  4088 1
 3470  4090  4089 1
 3471  4091  4089 1
 3472  4092  4089 1
 3473  4093  4092 1
 3474  4095  4094 1
 3475  4096  4095 1
 3476  4097  4095 1
 3477  4098  4095 1
 3478  4099  4098 1
 3479  4101  4100 1
 3480  4102  4101 1
 3481  4103  4101 1
 3482  4104  4101 1
 3483  4105  4104 1
 3484  4107  4106 1
 3485  4108  4107 1
 3486  4109  4107 1
 3487  4110  4107 1
 3488  4111  4110 1
 3489  4113  4112 1
 3490  4114  4113 1
 3491  4115  4113 1
 3492  4116  4113 1
 3493  4117  4116 1
 3494  4119  4118 1
 3495  4120  4119 1
 3496  4121  4119 1
 3497  4122  4119 1
 3498  4123  4122 1
 3499  4125  4124 1
 3500  4126  4125 1
 3501  4127  4125 1
 3502  4128  4125 1
 3503  4129  4128 1
 3504  4131  4130 1
 3505  4132  4131 1
 3506  4133  4131 1
 3507  4134  4131 1
 3508  4135  4134 1
 3509  4137  4136 1
 3510  4138  4137 1
 3511  4139  4137 1
 3512  4140  4137 1
 3513  4141  4140 1
 3514  4143  4142 1
 3515  4144  4143 1
 3516  4145  4143 1
 3517  4146  4143 1
 3518  4147  4146 1
 3519  4149  4148 1
 3520  4150  4149 1
 3521  4151  4149 1
 3522  4152  4149 1
 3523  4153  4152 1
 3524  4155  4154 1
 3525  4156  4155 1
 3526  4157  4155 1
 3527  4158  4155 1
 3528  4159  4158 1
 3529  4161  4160 1
 3530  4162  4161 1
 3531  4163  4161 1
 3532  4164  4161 1
 3533  4165  4164 1
 3534  4167  4166 1
 3535  4168  4167 1
 3536  4169  4167 1
 3537  4170  4167 1
 3538  4171  4170 1
 3539  4173  4172 1
 3540  4174  4173 1
 3541  4175  4173 1
 3542  4176  4173 1
 3543  4177  4176 1
 3544  4179  4178 1
 3545  4180  4179 1
 3546  4181  4179 1
 3547  4182  4179 1
 3548  4183  4182 1
 3549  4185  4184 1
 3550  4186  4185 1
 3551  4187  4185 1
 3552  4188  4185 1
 3553  4189  4188 1
 3554  4191  4190 1
 3555  4192  4191 1
 3556  4193  4191 1
 3557  4194  4191 1
 3558  4195  4194 1
 3559  4197  4196 1
 3560  4198  4197 1
 3561  4199  4197 1
 3562  4200  4197 1
 3563  4201  4200 1
 3564  4203  4202 1
 3565  4204  4203 1
 3566  4205  4203 1
 3567  4206  4203 1
 3568  4207  4206 1
 3569  4209  4208 1
 3570  4210  4209 1
 3571  4211  4209 1
 3572  4212  4209 1
 3573  4213  4212 1
 3574  4215  4214 1
 3575  4216  4215 1
 3576  4217  4215 1
 3577  4218  4215 1
 3578  4219  4218 1
 3579  4221  4220 1
 3580  4222  4221 1
 3581  4223  4221 1
 3582  4224  4221 1
 3583  4225  4224 1
 3584  4227  4226 1
 3585  4228  4227 1
 3586  4229  4227 1
 3587  4230  4227 1
 3588  4231  4230 1
 3589  4233  4232 1
 3590  4234  4233 1
 3591  4235  4233 1
 3592  4236  4233 1
 3593  4237  4236 1
 3594  4239  4238 1
 3595  4240  4239 1
 3596  4241  4239 1
 3597  4242  4239 1
 3598  4243  4242 1
 3599  4245  4244 1
 3600  4246  4245 1
 3601  4247  4245 1
 3602  4248  4245 1
 3603  4249  4248 1
 3604  4251  4250 1
 3605  4252  4251 1
 3606  4253  4251 1
 3607  4254  4251 1
 3608  4255  4254 1
 3609  4257  4256 1
 3610  4258  4257 1
 3611  4259  4257 1
 3612  4260  4257 1
 3613  4261  4260 1
 3614  4263  4262 1
 3615  4264  4263 1
 3616  4265  4263 1
 3617  4266  4263 1
 3618  4267  4266 1
 3619  4269  4268 1
 3620  4270  4269 1
 3621  4271  4269 1
 3622  4272  4269 1
 3623  4273  4272 1
 3624  4275  4274 1
 3625  4276  4275 1
 3626  4277  4275 1
 3627  4278  4275 1
 3628  4279  4278 1
 3629  4281  4280 1
 3630  4282  4281 1
 3631  4283  4281 1
 3632  4284  4281 1
 3633  4285  4284 1
 3634  4287  4286 1
 3635  4288  4287 1
 3636  4289  4287 1
 3637  4290  4287 1
 3638  4291  4290 1
 3639  4293  4292 1
 3640  4294  4293 1
 3641  4295  4293 1
 3642  4296  4293 1
 3643  4297  4296 1
 3644  4299  4298 1
 3645  4300  4299 1
 3646  4301  4299 1
 3647  4302  4299 1
 3648  4303  4302 1
 3649  4305  4304 1
 3650  4306  4305 1
 3651  4307  4305 1
 3652  4308  4305 1
 3653  4309  4308 1
 3654  4311  4310 1
 3655  4312  4311 1
 3656  4313  4311 1
 3657  4314  4311 1
 3658  4315  4314 1
 3659  4317  4316 1
 3660  4318  4317 1
 3661  4319  4317 1
 3662  4320  4317 1
 3663  4321  4320 1
 3664  4323  4322 1
 3665  4324  4323 1
 3666  4325  4323 1
 3667  4326  4323 1
 3668  4327  4326 1
 3669  4329  4328 1
 3670  4330  4329 1
 3671  4331  4329 1
 3672  4332  4329 1
 3673  4333  4332 1
 3674  4335  4334 1
 3675  4336  4335 1
 3676  4337  4335 1
 3677  4338  4335 1
 3678  4339  4338 1
 3679  4341  4340 1
 3680  4342  4341 1
 3681  4343  4341 1
 3682  4344  4341 1
 3683  4345  4344 1
 3684  4347  4346 1
 3685  4348  4347 1
 3686  4349  4347 1
 3687  4350  4347 1
 3688  4351  4350 1
 3689  4353  4352 1
 3690  4354  4353 1
 3691  4355  4353 1
 3692  4356  4353 1
 3693  4357  4356 1
 3694  4359  4358 1
 3695  4360  4359 1
 3696  4361  4359 1
 3697  4362  4359 1
 3698  4363  4362 1
 3699  4365  4364 1
 3700  4366  4365 1
 3701  4367  4365 1
 3702  4368  4365 1
 3703  4369  4368 1
 3704  4371  4370 1
 3705  4372  4371 1
 3706  4373  4371 1
 3707  4374  4371 1
 3708  4375  4374 1
 3709  4377  4376 1
 3710  4378  4377 1
 3711  4379  4377 1
 3712  4380  4377 1
 3713  4381  4380 1
 3714  4383  4382 1
 3715  4384  4383 1
 3716  4385  4383 1
 3717  4386  4383 1
 3718  4387  4386 1
 3719  4389  4388 1
 3720  4390  4389 1
 3721  4391  4389 1
 3722  4392  4389 1
 3723  4393  4392 1
 3724  4395  4394 1
 3725  4396  4395 1
 3726  4397  4395 1
 3727  4398  4395 1
 3728  4399  4398 1
 3729  4401  4400 1
 3730  4402  4401 1
 3731  4403  4401 1
 3732  4404  4401 1
 3733  4405  4404 1
 3734  4407  4406 1
 3735  4408  4407 1
 3736  4409  4407 1
 3737  4410  4407 1
 3738  4411  4410 1
 3739  4413  4412 1
 3740  4414  4413 1
 3741  4415  4413 1
 3742  4416  4413 1
 3743  4417  4416 1
 3744  4419  4418 1
 3745  4420  4419 1
 3746  4421  4419 1
 3747  4422  4419 1
 3748  4423  4422 1
 3749  4425  4424 1
 3750  4426  4425 1
 3751  4427  4425 1
 3752  4428  4425 1
 3753  4429  4428 1
 3754  4431  4430 1
 3755  4432  4431 1
 3756  4433  4431 1
 3757  4434  4431 1
 3758  4435  4434 1
 3759  4437  4436 1
 3760  4438  4437 1
 3761  4439  4437 1
 3762  4440  4437 1
 3763  4441  4440 1
 3764  4443  4442 1
 3765  4444  4443 1
 3766  4445  4443 1
 3767  4446  4443 1
 3768  4447  4446 1
 3769  4449  4448 1
 3770  4450  4449 1
 3771  4451  4449 1
 3772  4452  4449 1
 3773  4453  4452 1
 3774  4455  4454 1
 3775  4456  4455 1
 3776  4457  4455 1
 3777  4458  4455 1
 3778  4459  4458 1
 3779  4461  4460 1
 3780  4462  4461 1
 3781  4463  4461 1
 3782  4464  4461 1
 3783  4465  4464 1
 3784  4467  4466 1
 3785  4468  4467 1
 3786  4469  4467 1
 3787  4470  4467 1
 3788  4471  4470 1
 3789  4473  4472 1
 3790  4474  4473 1
 3791  4475  4473 1
 3792  4476  4473 1
 3793  4477  4476 1
 3794  4479  4478 1
 3795  4480  4479 1
 3796  4481  4479 1
 3797  4482  4479 1
 3798  4483  4482 1
 3799  4485  4484 1
 3800  4486  4485 1
 3801  4487  4485 1
 3802  4488  4485 1
 3803  4489  4488 1
 3804  4491  4490 1
 3805  4492  4491 1
 3806  4493  4491 1
 3807  4494  4491 1
 3808  4495  4494 1
 3809  4497  4496 1
 3810  4498  4497 1
 3811  4499  4497 1
 3812  4500  4497 1
 3813  4501  4500 1
 3814  4503  4502 1
 3815  4504  4503 1
 3816  4505  4503 1
 3817  4506  4503 1
 3818  4507  4506 1
 3819  4509  4508 1
 3820  4510  4509 1
 3821  4511  4509 1
 3822  4512  4509 1
 3823  4513  4512 1
 3824  4515  4514 1
 3825  4516  4515 1
 3826  4517  4515 1
 3827  4518  4515 1
 3828  4519  4518 1
 3829  4521  4520 1
 3830  4522  4521 1
 3831  4523  4521 1
 3832  4524  4521 1
 3833  4525  4524 1
 3834  4527  4526 1
 3835  4528  4527 1
 3836  4529  4527 1
 3837  4530  4527 1
 3838  4531  4530 1
 3839  4533  4532 1
 3840  4534  4533 1
 3841  4535  4533 1
 3842  4536  4533 1
 3843  4537  4536 1
 3844  4539  4538 1
 3845  4540  4539 1
 3846  4541  4539 1
 3847  4542  4539 1
 3848  4543  4542 1
 3849  4545  4544 1
 3850  4546  4545 1
 3851  4547  4545 1
 3852  4548  4545 1
 3853  4549  4548 1
 3854  4551  4550 1
 3855  4552  4551 1
 3856  4553  4551 1
 3857  4554  4551 1
 3858  4555  4554 1
 3859  4557  4556 1
 3860  4558  4557 1
 3861  4559  4557 1
 3862  4560  4557 1
 3863  4561  4560 1
 3864  4563  4562 1
 3865  4564  4563 1
 3866  4565  4563 1
 3867  4566  4563 1
 3868  4567  4566 1
 3869  4569  4568 1
 3870  4570  4569 1
 3871  4571  4569 1
 3872  4572  4569 1
 3873  4573  4572 1
 3874  4575  4574 1
 3875  4576  4575 1
 3876  4577  4575 1
 3877  4578  4575 1
 3878  4579  4578 1
 3879  4581  4580 1
 3880  4582  4581 1
 3881  4583  4581 1
 3882  4584  4581 1
 3883  4585  4584 1
 3884  4587  4586 1
 3885  4588  4587 1
 3886  4589  4587 1
 3887  4590  4587 1
 3888  4591  4590 1
 3889  4593  4592 1
 3890  4594  4593 1
 3891  4595  4593 1
 3892  4596  4593 1
 3893  4597  4596 1
 3894  4599  4598 1
 3895  4600  4599 1
 3896  4601  4599 1
 3897  4602  4599 1
 3898  4603  4602 1
 3899  4605  4604 1
 3900  4606  4605 1
 3901  4607  4605 1
 3902  4608  4605 1
 3903  4609  4608 1
 3904  4611  4610 1
 3905  4612  4611 1
 3906  4613  4611 1
 3907  4614  4611 1
 3908  4615  4614 1
 3909  4617  4616 1
 3910  4618  4617 1
 3911  4619  4617 1
 3912  4620  4617 1
 3913  4621  4620 1
 3914  4623  4622 1
 3915  4624  4623 1
 3916  4625  4623 1
 3917  4626  4623 1
 3918  4627  4626 1
 3919  4629  4628 1
 3920  4630  4629 1
 3921  4631  4629 1
 3922  4632  4629 1
 3923  4633  4632 1
 3924  4635  4634 1
 3925  4636  4635 1
 3926  4637  4635 1
 3927  4638  4635 1
 3928  4639  4638 1
 3929  4641  4640 1
 3930  4642  4641 1
 3931  4643  4641 1
 3932  4644  4641 1
 3933  4645  4644 1
 3934  4647  4646 1
 3935  4648  4647 1
 3936  4649  4647 1
 3937  4650  4647 1
 3938  4651  4650 1
 3939  4653  4652 1
 3940  4654  4653 1
 3941  4655  4653 1
 3942  4656  4653 1
 3943  4657  4656 1
 3944  4659  4658 1
 3945  4660  4659 1
 3946  4661  4659 1
 3947  4662  4659 1
 3948  4663  4662 1
 3949  4665  4664 1
 3950  4666  4665 1
 3951  4667  4665 1
 3952  4668  4665 1
 3953  4669  4668 1
 3954  4671  4670 1
 3955  4672  4671 1
 3956  4673  4671 1
 3957  4674  4671 1
 3958  4675  4674 1
 3959  4677  4676 1
 3960  4678  4677 1
 3961  4679  4677 1
 3962  4680  4677 1
 3963  4681  4680 1
 3964  4683  4682 1
 3965  4684  4683 1
 3966  4685  4683 1
 3967  4686  4683 1
 3968  4687  4686 1
 3969  4689  4688 1
 3970  4690  4689 1
 3971  4691  4689 1
 3972  4692  4689 1
 3973  4693  4692 1
 3974  4695  4694 1
 3975  4696  4695 1
 3976  4697  4695 1
 3977  4698  4695 1
 3978  4699  4698 1
 3979  4701  4700 1
 3980  4702  4701 1
 3981  4703  4701 1
 3982  4704  4701 1
 3983  4705  4704 1
 3984  4707  4706 1
 3985  4708  4707 1
 3986  4709  4707 1
 3987  4710  4707 1
 3988  4711  4710 1
 3989  4713  4712 1
 3990  4714  4713 1
 3991  4715  4713 1
 3992  4716  4713 1
 3993  4717  4716 1
 3994  4719  4718 1
 3995  4720  4719 1
 3996  4721  4719 1
 3997  4722  4719 1
 3998  4723  4722 1
 3999  4725  4724 1
 4000  4726  4725 1
 4001  4727  4725 1
 4002  4728  4725 1
 4003  4729  4728 1
 4004  4731  4730 1
 4005  4732  4731 1
 4006  4733  4731 1
 4007  4734  4731 1
 4008  4735  4734 1
 4009  4737  4736 1
 4010  4738  4737 1
 4011  4739  4737 1
 4012  4740  4737 1
 4013  4741  4740 1
 4014  4743  4742 1
 4015  4744  4743 1
 4016  4745  4743 1
 4017  4746  4743 1
 4018  4747  4746 1
 4019  4749  4748 1
 4020  4750  4749 1
 4021  4751  4749 1
 4022  4752  4749 1
 4023  4753  4752 1
 4024  4755  4754 1
 4025  4756  4755 1
 4026  4757  4755 1
 4027  4758  4755 1
 4028  4759  4758 1
 4029  4761  4760 1
 4030  4762  4761 1
 4031  4763  4761 1
 4032  4764  4761 1
 4033  4765  4764 1
 4034  4767  4766 1
 4035  4768  4767 1
 4036  4769  4767 1
 4037  4770  4767 1
 4038  4771  4770 1
 4039  4773  4772 1
 4040  4774  4773 1
 4041  4775  4773 1
 4042  4776  4773 1
 4043  4777  4776 1
 4044  4779  4778 1
 4045  4780  4779 1
 4046  4781  4779 1
 4047  4782  4779 1
 4048  4783  4782 1
 4049  4785  4784 1
 4050  4786  4785 1
 4051  4787  4785 1
 4052  4788  4785 1
 4053  4789  4788 1
 4054  4791  4790 1
 4055  4792  4791 1
 4056  4793  4791 1
 4057  4794  4791 1
 4058  4795  4794 1
 4059  4797  4796 1
 4060  4798  4797 1
 4061  4799  4797 1
 4062  4800  4797 1
 4063  4801  4800 1
 4064  4803  4802 1
 4065  4804  4803 1
 4066  4805  4803 1
 4067  4806  4803 1
 4068  4807  4806 1
 4069  4809  4808 1
 4070  4810  4809 1
 4071  4811  4809 1
 4072  4812  4809 1
 4073  4813  4812 1
 4074  4815  4814 1
 4075  4816  4815 1
 4076  4817  4815 1
 4077  4818  4815 1
 4078  4819  4818 1
 4079  4821  4820 1
 4080  4822  4821 1
 4081  4823  4821 1
 4082  4824  4821 1
 4083  4825  4824 1
 4084  4827  4826 1
 4085  4828  4827 1
 4086  4829  4827 1
 4087  4830  4827 1
 4088  4831  4830 1
 4089  4833  4832 1
 4090  4834  4833 1
 4091  4835  4833 1
 4092  4836  4833 1
 4093  4837  4836 1
 4094  4839  4838 1
 4095  4840  4839 1
 4096  4841  4839 1
 4097  4842  4839 1
 4098  4843  4842 1
 4099  4845  4844 1
 4100  4846  4845 1
 4101  4847  4845 1
 4102  4848  4845 1
 4103  4849  4848 1
 4104  4851  4850 1
 4105  4852  4851 1
 4106  4853  4851 1
 4107  4854  4851 1
 4108  4855  4854 1
 4109  4857  4856 1
 4110  4858  4857 1
 4111  4859  4857 1
 4112  4860  4857 1
 4113  4861  4860 1
 4114  4863  4862 1
 4115  4864  4863 1
 4116  4865  4863 1
 4117  4866  4863 1
 4118  4867  4866 1
 4119  4869  4868 1
 4120  4870  4869 1
 4121  4871  4869 1
 4122  4872  4869 1
 4123  4873  4872 1
 4124  4875  4874 1
 4125  4876  4875 1
 4126  4877  4875 1
 4127  4878  4875 1
 4128  4879  4878 1
 4129  4881  4880 1
 4130  4882  4881 1
 4131  4883  4881 1
 4132  4884  4881 1
 4133  4885  4884 1
 4134  4887  4886 1
 4135  4888  4887 1
 4136  4889  4887 1
 4137  4890  4887 1
 4138  4891  4890 1
 4139  4893  4892 1
 4140  4894  4893 1
 4141  4895  4893 1
 4142  4896  4893 1
 4143  4897  4896 1
 4144  4899  4898 1
 4145  4900  4899 1
 4146  4901  4899 1
 4147  4902  4899 1
 4148  4903  4902 1
 4149  4905  4904 1
 4150  4906  4905 1
 4151  4907  4905 1
 4152  4908  4905 1
 4153  4909  4908 1
 4154  4911  4910 1
 4155  4912  4911 1
 4156  4913  4911 1
 4157  4914  4911 1
 4158  4915  4914 1
 4159  4917  4916 1
 4160  4918  4917 1
 4161  4919  4917 1
 4162  4920  4917 1
 4163  4921  4920 1
 4164  4923  4922 1
 4165  4924  4923 1
 4166  4925  4923 1
 4167  4926  4923 1
 4168  4927  4926 1
 4169  4929  4928 1
 4170  4930  4929 1
 4171  4931  4929 1
 4172  4932  4929 1
 4173  4933  4932 1
 4174  4935  4934 1
 4175  4936  4935 1
 4176  4937  4935 1
 4177  4938  4935 1
 4178  4939  4938 1
 4179  4941  4940 1
 4180  4942  4941 1
 4181  4943  4941 1
 4182  4944  4941 1
 4183  4945  4944 1
 4184  4947  4946 1
 4185  4948  4947 1
 4186  4949  4947 1
 4187  4950  4947 1
 4188  4951  4950 1
 4189  4953  4952 1
 4190  4954  4953 1
 4191  4955  4953 1
 4192  4956  4953 1
 4193  4957  4956 1
 4194  4959  4958 1
 4195  4960  4959 1
 4196  4961  4959 1
 4197  4962  4959 1
 4198  4963  4962 1
 4199  4965  4964 1
 4200  4966  4965 1
 4201  4967  4965 1
 4202  4968  4965 1
 4203  4969  4968 1
 4204  4971  4970 1
 4205  4972  4971 1
 4206  4973  4971 1
 4207  4974  4971 1
 4208  4975  4974 1
 4209  4977  4976 1
 4210  4978  4977 1
 4211  4979  4977 1
 4212  4980  4977 1
 4213  4981  4980 1
 4214  4983  4982 1
 4215  4984  4983 1
 4216  4985  4983 1
 4217  4986  4983 1
 4218  4987  4986 1
 4219  4989  4988 1
 4220  4990  4989 1
 4221  4991  4989 1
 4222  4992  4989 1
 4223  4993  4992 1
 4224  4995  4994 1
 4225  4996  4995 1
 4226  4997  4995 1
 4227  4998  4995 1
 4228  4999  4998 1
 4229  5001  5000 1
 4230  5002  5001 1
 4231  5003  5001 1
 4232  5004  5001 1
 4233  5005  5004 1
 4234  5007  5006 1
 4235  5008  5007 1
 4236  5009  5007 1
 4237  5010  5007 1
 4238  5011  5010 1
 4239  5013  5012 1
 4240  5014  5013 1
 4241  5015  5013 1
 4242  5016  5013 1
 4243  5017  5016 1
 4244  5019  5018 1
 4245  5020  5019 1
 4246  5021  5019 1
 4247  5022  5019 1
 4248  5023  5022 1
 4249  5025  5024 1
 4250  5026  5025 1
 4251  5027  5025 1
 4252  5028  5025 1
 4253  5029  5028 1
 4254  5031  5030 1
 4255  5032  5031 1
 4256  5033  5031 1
 4257  5034  5031 1
 4258  5035  5034 1
 4259  5037  5036 1
 4260  5038  5037 1
 4261  5039  5037 1
 4262  5040  5037 1
 4263  5041  5040 1
 4264  5043  5042 1
 4265  5044  5043 1
 4266  5045  5043 1
 4267  5046  5043 1
 4268  5047  5046 1
 4269  5049  5048 1
 4270  5050  5049 1
 4271  5051  5049 1
 4272  5052  5049 1
 4273  5053  5052 1
 4274  5055  5054 1
 4275  5056  5055 1
 4276  5057  5055 1
 4277  5058  5055 1
 4278  5059  5058 1
 4279  5061  5060 1
 4280  5062  5061 1
 4281  5063  5061 1
 4282  5064  5061 1
 4283  5065  5064 1
 4284  5067  5066 1
 4285  5068  5067 1
 4286  5069  5067 1
 4287  5070  5067 1
 4288  5071  5070 1
 4289  5073  5072 1
 4290  5074  5073 1
 4291  5075  5073 1
 4292  5076  5073 1
 4293  5077  5076 1
 4294  5079  5078 1
 4295  5080  5079 1
 4296  5081  5079 1
 4297  5082  5079 1
 4298  5083  5082 1
 4299  5085  5084 1
 4300  5086  5085 1
 4301  5087  5085 1
 4302  5088  5085 1
 4303  5089  5088 1
 4304  5091  5090 1
 4305  5092  5091 1
 4306  5093  5091 1
 4307  5094  5091 1
 4308  5095  5094 1
 4309  5097  5096 1
 4310  5098  5097 1
 4311  5099  5097 1
 4312  5100  5097 1
 4313  5101  5100 1
 4314  5103  5102 1
 4315  5104  5103 1
 4316  5105  5103 1
 4317  5106  5103 1
 4318  5107  5106 1
 4319  5109  5108 1
 4320  5110  5109 1
 4321  5111  5109 1
 4322  5112  5109 1
 4323  5113  5112 1
 4324  5115  5114 1
 4325  5116  5115 1
 4326  5117  5115 1
 4327  5118  5115 1
 4328  5119  5118 1
 4329  5121  5120 1
 4330  5122  5121 1
 4331  5123  5121 1
 4332  5124  5121 1
 4333  5125  5124 1
 4334  5127  5126 1
 4335  5128  5127 1
 4336  5129  5127 1
 4337  5130  5127 1
 4338  5131  5130 1
 4339  5133  5132 1
 4340  5134  5133 1
 4341  5135  5133 1
 4342  5136  5133 1
 4343  5137  5136 1
 4344  5139  5138 1
 4345  5140  5139 1
 4346  5141  5139 1
 4347  5142  5139 1
 4348  5143  5142 1
 4349  5145  5144 1
 4350  5146  5145 1
 4351  5147  5145 1
 4352  5148  5145 1
 4353  5149  5148 1
 4354  5151  5150 1
 4355  5152  5151 1
 4356  5153  5151 1
 4357  5154  5151 1
 4358  5155  5154 1
 4359  5157  5156 1
 4360  5158  5157 1
 4361  5159  5157 1
 4362  5160  5157 1
 4363  5161  5160 1
 4364  5163  5162 1
 4365  5164  5163 1
 4366  5165  5163 1
 4367  5166  5163 1
 4368  5167  5166 1
 4369  5169  5168 1
 4370  5170  5169 1
 4371  5171  5169 1
 4372  5172  5169 1
 4373  5173  5172 1
 4374  5175  5174 1
 4375  5176  5175 1
 4376  5177  5175 1
 4377  5178  5175 1
 4378  5179  5178 1
 4379  5181  5180 1
 4380  5182  5181 1
 4381  5183  5181 1
 4382  5184  5181 1
 4383  5185  5184 1
 4384  5187  5186 1
 4385  5188  5187 1
 4386  5189  5187 1
 4387  5190  5187 1
 4388  5191  5190 1
 4389  5193  5192 1
 4390  5194  5193 1
 4391  5195  5193 1
 4392  5196  5193 1
 4393  5197  5196 1
 4394  5199  5198 1
 4395  5200  5199 1
 4396  5201  5199 1
 4397  5202  5199 1
 4398  5203  5202 1
 4399  5205  5204 1
 4400  5206  5205 1
 4401  5207  5205 1
 4402  5208  5205 1
 4403  5209  5208 1
 4404  5211  5210 1
 4405  5212  5211 1
 4406  5213  5211 1
 4407  5214  5211 1
 4408  5215  5214 1
 4409  5217  5216 1
 4410  5218  5217 1
 4411  5219  5217 1
 4412  5220  5217 1
 4413  5221  5220 1
 4414  5223  5222 1
 4415  5224  5223 1
 4416  5225  5223 1
 4417  5226  5223 1
 4418  5227  5226 1
 4419  5229  5228 1
 4420  5230  5229 1
 4421  5231  5229 1
 4422  5232  5229 1
 4423  5233  5232 1
 4424  5235  5234 1
 4425  5236  5235 1
 4426  5237  5235 1
 4427  5238  5235 1
 4428  5239  5238 1
 4429  5241  5240 1
 4430  5242  5241 1
 4431  5243  5241 1
 4432  5244  5241 1
 4433  5245  5244 1
 4434  5247  5246 1
 4435  5248  5247 1
 4436  5249  5247 1
 4437  5250  5247 1
 4438  5251  5250 1
 4439  5253  5252 1
 4440  5254  5253 1
 4441  5255  5253 1
 4442  5256  5253 1
 4443  5257  5256 1
 4444  5259  5258 1
 4445  5260  5259 1
 4446  5261  5259 1
 4447  5262  5259 1
 4448  5263  5262 1
 4449  5265  5264 1
 4450  5266  5265 1
 4451  5267  5265 1
 4452  5268  5265 1
 4453  5269  5268 1
 4454  5271  5270 1
 4455  5272  5271 1
 4456  5273  5271 1
 4457  5274  5271 1
 4458  5275  5274 1
 4459  5277  5276 1
 4460  5278  5277 1
 4461  5279  5277 1
 4462  5280  5277 1
 4463  5281  5280 1
 4464  5283  5282 1
 4465  5284  5283 1
 4466  5285  5283 1
 4467  5286  5283 1
 4468  5287  5286 1
 4469  5289  5288 1
 4470  5290  5289 1
 4471  5291  5289 1
 4472  5292  5289 1
 4473  5293  5292 1
 4474  5295  5294 1
 4475  5296  5295 1
 4476  5297  5295 1
 4477  5298  5295 1
 4478  5299  5298 1
 4479  5301  5300 1
 4480  5302  5301 1
 4481  5303  5301 1
 4482  5304  5301 1
 4483  5305  5304 1
 4484  5307  5306 1
 4485  5308  5307 1
 4486  5309  5307 1
 4487  5310  5307 1
 4488  5311  5310 1
 4489  5313  5312 1
 4490  5314  5313 1
 4491  5315  5313 1
 4492  5316  5313 1
 4493  5317  5316 1
 4494  5319  5318 1
 4495  5320  5319 1
 4496  5321  5319 1
 4497  5322  5319 1
 4498  5323  5322 1
 4499  5325  5324 1
 4500  5326  5325 1
 4501  5327  5325 1
 4502  5328  5325 1
 4503  5329  5328 1
 4504  5331  5330 1
 4505  5332  5331 1
 4506  5333  5331 1
 4507  5334  5331 1
 4508  5335  5334 1
 4509  5337  5336 1
 4510  5338  5337 1
 4511  5339  5337 1
 4512  5340  5337 1
 4513  5341  5340 1
 4514  5343  5342 1
 4515  5344  5343 1
 4516  5345  5343 1
 4517  5346  5343 1
 4518  5347  5346 1
 4519  5349  5348 1
 4520  5350  5349 1
 4521  5351  5349 1
 4522  5352  5349 1
 4523  5353  5352 1
 4524  5355  5354 1
 4525  5356  5355 1
 4526  5357  5355 1
 4527  5358  5355 1
 4528  5359  5358 1
 4529  5361  5360 1
 4530  5362  5361 1
 4531  5363  5361 1
 4532  5364  5361 1
 4533  5365  5364 1
 4534  5367  5366 1
 4535  5368  5367 1
 4536  5369  5367 1
 4537  5370  5367 1
 4538  5371  5370 1
 4539  5373  5372 1
 4540  5374  5373 1
 4541  5375  5373 1
 4542  5376  5373 1
 4543  5377  5376 1
 4544  5379  5378 1
 4545  5380  5379 1
 4546  5381  5379 1
 4547  5382  5379 1
 4548  5383  5382 1
 4549  5385  5384 1
 4550  5386  5385 1
 4551  5387  5385 1
 4552  5388  5385 1
 4553  5389  5388 1
 4554  5391  5390 1
 4555  5392  5391 1
 4556  5393  5391 1
 4557  5394  5391 1
 4558  5395  5394 1
 4559  5397  5396 1
 4560  5398  5397 1
 4561  5399  5397 1
 4562  5400  5397 1
 4563  5401  5400 1
 4564  5403  5402 1
 4565  5404  5403 1
 4566  5405  5403 1
 4567  5406  5403 1
 4568  5407  5406 1
 4569  5409  5408 1
 4570  5410  5409 1
 4571  5411  5409 1
 4572  5412  5409 1
 4573  5413  5412 1
 4574  5415  5414 1
 4575  5416  5415 1
 4576  5417  5415 1
 4577  5418  5415 1
 4578  5419  5418 1
 4579  5421  5420 1
 4580  5422  5421 1
 4581  5423  5421 1
 4582  5424  5421 1
 4583  5425  5424 1
 4584  5427  5426 1
 4585  5428  5427 1
 4586  5429  5427 1
 4587  5430  5427 1
 4588  5431  5430 1
 4589  5433  5432 1
 4590  5434  5433 1
 4591  5435  5433 1
 4592  5436  5433 1
 4593  5437  5436 1
 4594  5439  5438 1
 4595  5440  5439 1
 4596  5441  5439 1
 4597  5442  5439 1
 4598  5443  5442 1
 4599  5445  5444 1
 4600  5446  5445 1
 4601  5447  5445 1
 4602  5448  5445 1
 4603  5449  5448 1
 4604  5451  5450 1
 4605  5452  5451 1
 4606  5453  5451 1
 4607  5454  5451 1
 4608  5455  5454 1
 4609  5457  5456 1
 4610  5458  5457 1
 4611  5459  5457 1
 4612  5460  5457 1
 4613  5461  5460 1
 4614  5463  5462 1
 4615  5464  5463 1
 4616  5465  5463 1
 4617  5466  5463 1
 4618  5467  5466 1
 4619  5469  5468 1
 4620  5470  5469 1
 4621  5471  5469 1
 4622  5472  5469 1
 4623  5473  5472 1
 4624  5475  5474 1
 4625  5476  5475 1
 4626  5477  5475 1
 4627  5478  5475 1
 4628  5479  5478 1
 4629  5481  5480 1
 4630  5482  5481 1
 4631  5483  5481 1
 4632  5484  5481 1
 4633  5485  5484 1
 4634  5487  5486 1
 4635  5488  5487 1
 4636  5489  5487 1
 4637  5490  5487 1
 4638  5491  5490 1
 4639  5493  5492 1
 4640  5494  5493 1
 4641  5495  5493 1
 4642  5496  5493 1
 4643  5497  5496 1
 4644  5499  5498 1
 4645  5500  5499 1
 4646  5501  5499 1
 4647  5502  5499 1
 4648  5503  5502 1
 4649  5505  5504 1
 4650  5506  5505 1
 4651  5507  5505 1
 4652  5508  5505 1
 4653  5509  5508 1
 4654  5511  5510 1
 4655  5512  5511 1
 4656  5513  5511 1
 4657  5514  5511 1
 4658  5515  5514 1
 4659  5517  5516 1
 4660  5518  5517 1
 4661  5519  5517 1
 4662  5520  5517 1
 4663  5521  5520 1
 4664  5523  5522 1
 4665  5524  5523 1
 4666  5525  5523 1
 4667  5526  5523 1
 4668  5527  5526 1
 4669  5529  5528 1
 4670  5530  5529 1
 4671  5531  5529 1
 4672  5532  5529 1
 4673  5533  5532 1
 4674  5535  5534 1
 4675  5536  5535 1
 4676  5537  5535 1
 4677  5538  5535 1
 4678  5539  5538 1
 4679  5541  5540 1
 4680  5542  5541 1
 4681  5543  5541 1
 4682  5544  5541 1
 4683  5545  5544 1
 4684  5547  5546 1
 4685  5548  5547 1
 4686  5549  5547 1
 4687  5550  5547 1
 4688  5551  5550 1
 4689  5553  5552 1
 4690  5554  5553 1
 4691  5555  5553 1
 4692  5556  5553 1
 4693  5557  5556 1
 4694  5559  5558 1
 4695  5560  5559 1
 4696  5561  5559 1
 4697  5562  5559 1
 4698  5563  5562 1
 4699  5565  5564 1
 4700  5566  5565 1
 4701  5567  5565 1
 4702  5568  5565 1
 4703  5569  5568 1
 4704  5571  5570 1
 4705  5572  5571 1
 4706  5573  5571 1
 4707  5574  5571 1
 4708  5575  5574 1
 4709  5577  5576 1
 4710  5578  5577 1
 4711  5579  5577 1
 4712  5580  5577 1
 4713  5581  5580 1
 4714  5583  5582 1
 4715  5584  5583 1
 4716  5585  5583 1
 4717  5586  5583 1
 4718  5587  5586 1
 4719  5589  5588 1
 4720  5590  5589 1
 4721  5591  5589 1
 4722  5592  5589 1
 4723  5593  5592 1
 4724  5595  5594 1
 4725  5596  5595 1
 4726  5597  5595 1
 4727  5598  5595 1
 4728  5599  5598 1
 4729  5601  5600 1
 4730  5602  5601 1
 4731  5603  5601 1
 4732  5604  5601 1
 4733  5605  5604 1
 4734  5607  5606 1
 4735  5608  5607 1
 4736  5609  5607 1
 4737  5610  5607 1
 4738  5611  5610 1
 4739  5613  5612 1
 4740  5614  5613 1
 4741  5615  5613 1
 4742  5616  5613 1
 4743  5617  5616 1
 4744  5619  5618 1
 4745  5620  5619 1
 4746  5621  5619 1
 4747  5622  5619 1
 4748  5623  5622 1
 4749  5625  5624 1
 4750  5626  5625 1
 4751  5627  5625 1
 4752  5628  5625 1
 4753  5629  5628 1
 4754  5631  5630 1
 4755  5632  5631 1
 4756  5633  5631 1
 4757  5634  5631 1
 4758  5635  5634 1
 4759  5637  5636 1
 4760  5638  5637 1
 4761  5639  5637 1
 4762  5640  5637 1
 4763  5641  5640 1
 4764  5643  5642 1
 4765  5644  5643 1
 4766  5645  5643 1
 4767  5646  5643 1
 4768  5647  5646 1
 4769  5649  5648 1
 4770  5650  5649 1
 4771  5651  5649 1
 4772  5652  5649 1
 4773  5653  5652 1
 4774  5655  5654 1
 4775  5656  5655 1
 4776  5657  5655 1
 4777  5658  5655 1
 4778  5659  5658 1
 4779  5661  5660 1
 4780  5662  5661 1
 4781  5663  5661 1
 4782  5664  5661 1
 4783  5665  5664 1
 4784  5667  5666 1
 4785  5668  5667 1
 4786  5669  5667 1
 4787  5670  5667 1
 4788  5671  5670 1
 4789  5673  5672 1
 4790  5674  5673 1
 4791  5675  5673 1
 4792  5676  5673 1
 4793  5677  5676 1
 4794  5679  5678 1
 4795  5680  5679 1
 4796  5681  5679 1
 4797  5682  5679 1
 4798  5683  5682 1
 4799  5685  5684 1
 4800  5686  5685 1
 4801  5687  5685 1
 4802  5688  5685 1
 4803  5689  5688 1
 4804  5691  5690 1
 4805  5692  5691 1
 4806  5693  5691 1
 4807  5694  5691 1
 4808  5695  5694 1
 4809  5697  5696 1
 4810  5698  5697 1
 4811  5699  5697 1
 4812  5700  5697 1
 4813  5701  5700 1
 4814  5703  5702 1
 4815  5704  5703 1
 4816  5705  5703 1
 4817  5706  5703 1
 4818  5707  5706 1
 4819  5709  5708 1
 4820  5710  5709 1
 4821  5711  5709 1
 4822  5712  5709 1
 4823  5713  5712 1
 4824  5715  5714 1
 4825  5716  5715 1
 4826  5717  5715 1
 4827  5718  5715 1
 4828  5719  5718 1
 4829  5721  5720 1
 4830  5722  5721 1
 4831  5723  5721 1
 4832  5724  5721 1
 4833  5725  5724 1
 4834  5727  5726 1
 4835  5728  5727 1
 4836  5729  5727 1
 4837  5730  5727 1
 4838  5731  5730 1
 4839  5733  5732 1
 4840  5734  5733 1
 4841  5735  5733 1
 4842  5736  5733 1
 4843  5737  5736 1
 4844  5739  5738 1
 4845  5740  5739 1
 4846  5741  5739 1
 4847  5742  5739 1
 4848  5743  5742 1
 4849  5745  5744 1
 4850  5746  5745 1
 4851  5747  5745 1
 4852  5748  5745 1
 4853  5749  5748 1
 4854  5751  5750 1
 4855  5752  5751 1
 4856  5753  5751 1
 4857  5754  5751 1
 4858  5755  5754 1
 4859  5757  5756 1
 4860  5758  5757 1
 4861  5759  5757 1
 4862  5760  5757 1
 4863  5761  5760 1
 4864  5763  5762 1
 4865  5764  5763 1
 4866  5765  5763 1
 4867  5766  5763 1
 4868  5767  5766 1
 4869  5769  5768 1
 4870  5770  5769 1
 4871  5771  5769 1
 4872  5772  5769 1
 4873  5773  5772 1
 4874  5775  5774 1
 4875  5776  5775 1
 4876  5777  5775 1
 4877  5778  5775 1
 4878  5779  5778 1
 4879  5781  5780 1
 4880  5782  5781 1
 4881  5783  5781 1
 4882  5784  5781 1
 4883  5785  5784 1
 4884  5787  5786 1
 4885  5788  5787 1
 4886  5789  5787 1
 4887  5790  5787 1
 4888  5791  5790 1
 4889  5793  5792 1
 4890  5794  5793 1
 4891  5795  5793 1
 4892  5796  5793 1
 4893  5797  5796 1
 4894  5799  5798 1
 4895  5800  5799 1
 4896  5801  5799 1
 4897  5802  5799 1
 4898  5803  5802 1
 4899  5805  5804 1
 4900  5806  5805 1
 4901  5807  5805 1
 4902  5808  5805 1
 4903  5809  5808 1
 4904  5811  5810 1
 4905  5812  5811 1
 4906  5813  5811 1
 4907  5814  5811 1
 4908  5815  5814 1
 4909  5817  5816 1
 4910  5818  5817 1
 4911  5819  5817 1
 4912  5820  5817 1
 4913  5821  5820 1
 4914  5823  5822 1
 4915  5824  5823 1
 4916  5825  5823 1
 4917  5826  5823 1
 4918  5827  5826 1
 4919  5829  5828 1
 4920  5830  5829 1
 4921  5831  5829 1
 4922  5832  5829 1
 4923  5833  5832 1
 4924  5835  5834 1
 4925  5836  5835 1
 4926  5837  5835 1
 4927  5838  5835 1
 4928  5839  5838 1
 4929  5841  5840 1
 4930  5842  5841 1
 4931  5843  5841 1
 4932  5844  5841 1
 4933  5845  5844 1
 4934  5847  5846 1
 4935  5848  5847 1
 4936  5849  5847 1
 4937  5850  5847 1
 4938  5851  5850 1
 4939  5853  5852 1
 4940  5854  5853 1
 4941  5855  5853 1
 4942  5856  5853 1
 4943  5857  5856 1
 4944  5859  5858 1
 4945  5860  5859 1
 4946  5861  5859 1
 4947  5862  5859 1
 4948  5863  5862 1
 4949  5865  5864 1
 4950  5866  5865 1
 4951  5867  5865 1
 4952  5868  5865 1
 4953  5869  5868 1
 4954  5871  5870 1
 4955  5872  5871 1
 4956  5873  5871 1
 4957  5874  5871 1
 4958  5875  5874 1
 4959  5877  5876 1
 4960  5878  5877 1
 4961  5879  5877 1
 4962  5880  5877 1
 4963  5881  5880 1
 4964  5883  5882 1
 4965  5884  5883 1
 4966  5885  5883 1
 4967  5886  5883 1
 4968  5887  5886 1
 4969  5889  5888 1
 4970  5890  5889 1
 4971  5891  5889 1
 4972  5892  5889 1
 4973  5893  5892 1
 4974  5895  5894 1
 4975  5896  5895 1
 4976  5897  5895 1
 4977  5898  5895 1
 4978  5899  5898 1
 4979  5901  5900 1
 4980  5902  5901 1
 4981  5903  5901 1
 4982  5904  5901 1
 4983  5905  5904 1
 4984  5907  5906 1
 4985  5908  5907 1
 4986  5909  5907 1
 4987  5910  5907 1
 4988  5911  5910 1
 4989  5913  5912 1
 4990  5914  5913 1
 4991  5915  5913 1
 4992  5916  5913 1
 4993  5917  5916 1
 4994  5919  5918 1
 4995  5920  5919 1
 4996  5921  5919 1
 4997  5922  5919 1
 4998  5923  5922 1
 4999  5925  5924 1
 5000  5926  5925 1
 5001  5927  5925 1
 5002  5928  5925 1
 5003  5929  5928 1
 5004  5931  5930 1
 5005  5932  5931 1
 5006  5933  5931 1
 5007  5934  5931 1
 5008  5935  5934 1
 5009  5937  5936 1
 5010  5938  5937 1
 5011  5939  5937 1
 5012  5940  5937 1
 5013  5941  5940 1
 5014  5943  5942 1
 5015  5944  5943 1
 5016  5945  5943 1
 5017  5946  5943 1
 5018  5947  5946 1
 5019  5949  5948 1
 5020  5950  5949 1
 5021  5951  5949 1
 5022  5952  5949 1
 5023  5953  5952 1
 5024  5955  5954 1
 5025  5956  5955 1
 5026  5957  5955 1
 5027  5958  5955 1
 5028  5959  5958 1
 5029  5961  5960 1
 5030  5962  5961 1
 5031  5963  5961 1
 5032  5964  5961 1
 5033  5965  5964 1
 5034  5967  5966 1
 5035  5968  5967 1
 5036  5969  5967 1
 5037  5970  5967 1
 5038  5971  5970 1
 5039  5973  5972 1
 5040  5974  5973 1
 5041  5975  5973 1
 5042  5976  5973 1
 5043  5977  5976 1
 5044  5979  5978 1
 5045  5980  5979 1
 5046  5981  5979 1
 5047  5982  5979 1
 5048  5983  5982 1
 5049  5985  5984 1
 5050  5986  5985 1
 5051  5987  5985 1
 5052  5988  5985 1
 5053  5989  5988 1
 5054  5991  5990 1
 5055  5992  5991 1
 5056  5993  5991 1
 5057  5994  5991 1
 5058  5995  5994 1
 5059  5997  5996 1
 5060  5998  5997 1
 5061  5999  5997 1
 5062  6000  5997 1
 5063  6001  6000 1
 5064  6003  6002 1
 5065  6004  6003 1
 5066  6005  6003 1
 5067  6006  6003 1
 5068  6007  6006 1
 5069  6009  6008 1
 5070  6010  6009 1
 5071  6011  6009 1
 5072  6012  6009 1
 5073  6013  6012 1
 5074  6015  6014 1
 5075  6016  6015 1
 5076  6017  6015 1
 5077  6018  6015 1
 5078  6019  6018 1
 5079  6021  6020 1
 5080  6022  6021 1
 5081  6023  6021 1
 5082  6024  6021 1
 5083  6025  6024 1
 5084  6027  6026 1
 5085  6028  6027 1
 5086  6029  6027 1
 5087  6030  6027 1
 5088  6031  6030 1
 5089  6033  6032 1
 5090  6034  6033 1
 5091  6035  6033 1
 5092  6036  6033 1
 5093  6037  6036 1
 5094  6039  6038 1
 5095  6040  6039 1
 5096  6041  6039 1
 5097  6042  6039 1
 5098  6043  6042 1
 5099  6045  6044 1
 5100  6046  6045 1
 5101  6047  6045 1
 5102  6048  6045 1
 5103  6049  6048 1
 5104  6051  6050 1
 5105  6052  6051 1
 5106  6053  6051 1
 5107  6054  6051 1
 5108  6055  6054 1
 5109  6057  6056 1
 5110  6058  6057 1
 5111  6059  6057 1
 5112  6060  6057 1
 5113  6061  6060 1
 5114  6063  6062 1
 5115  6064  6063 1
 5116  6065  6063 1
 5117  6066  6063 1
 5118  6067  6066 1
 5119  6069  6068 1
 5120  6070  6069 1
 5121  6071  6069 1
 5122  6072  6069 1
 5123  6073  6072 1
 5124  6075  6074 1
 5125  6076  6075 1
 5126  6077  6075 1
 5127  6078  6075 1
 5128  6079  6078 1
 5129  6081  6080 1
 5130  6082  6081 1
 5131  6083  6081 1
 5132  6084  6081 1
 5133  6085  6084 1
 5134  6087  6086 1
 5135  6088  6087 1
 5136  6089  6087 1
 5137  6090  6087 1
 5138  6091  6090 1
 5139  6093  6092 1
 5140  6094  6093 1
 5141  6095  6093 1
 5142  6096  6093 1
 5143  6097  6096 1
 5144  6099  6098 1
 5145  6100  6099 1
 5146  6101  6099 1
 5147  6102  6099 1
 5148  6103  6102 1
 5149  6105  6104 1
 5150  6106  6105 1
 5151  6107  6105 1
 5152  6108  6105 1
 5153  6109  6108 1
 5154  6111  6110 1
 5155  6112  6111 1
 5156  6113  6111 1
 5157  6114  6111 1
 5158  6115  6114 1
 5159  6117  6116 1
 5160  6118  6117 1
 5161  6119  6117 1
 5162  6120  6117 1
 5163  6121  6120 1
 5164  6123  6122 1
 5165  6124  6123 1
 5166  6125  6123 1
 5167  6126  6123 1
 5168  6127  6126 1
 5169  6129  6128 1
 5170  6130  6129 1
 5171  6131  6129 1
 5172  6132  6129 1
 5173  6133  6132 1
 5174  6135  6134 1
 5175  6136  6135 1
 5176  6137  6135 1
 5177  6138  6135 1
 5178  6139  6138 1
 5179  6141  6140 1
 5180  6142  6141 1
 5181  6143  6141 1
 5182  6144  6141 1
 5183  6145  6144 1
 5184  6147  6146 1
 5185  6148  6147 1
 5186  6149  6147 1
 5187  6150  6147 1
 5188  6151  6150 1
 5189  6153  6152 1
 5190  6154  6153 1
 5191  6155  6153 1
 5192  6156  6153 1
 5193  6157  6156 1
 5194  6159  6158 1
 5195  6160  6159 1
 5196  6161  6159 1
 5197  6162  6159 1
 5198  6163  6162 1
 5199  6165  6164 1
 5200  6166  6165 1
 5201  6167  6165 1
 5202  6168  6165 1
 5203  6169  6168 1
 5204  6171  6170 1
 5205  6172  6171 1
 5206  6173  6171 1
 5207  6174  6171 1
 5208  6175  6174 1
 5209  6177  6176 1
 5210  6178  6177 1
 5211  6179  6177 1
 5212  6180  6177 1
 5213  6181  6180 1
 5214  6183  6182 1
 5215  6184  6183 1
 5216  6185  6183 1
 5217  6186  6183 1
 5218  6187  6186 1
 5219  6189  6188 1
 5220  6190  6189 1
 5221  6191  6189 1
 5222  6192  6189 1
 5223  6193  6192 1
 5224  6195  6194 1
 5225  6196  6195 1
 5226  6197  6195 1
 5227  6198  6195 1
 5228  6199  6198 1
 5229  6201  6200 1
 5230  6202  6201 1
 5231  6203  6201 1
 5232  6204  6201 1
 5233  6205  6204 1
 5234  6207  6206 1
 5235  6208  6207 1
 5236  6209  6207 1
 5237  6210  6207 1
 5238  6211  6210 1
 5239  6213  6212 1
 5240  6214  6213 1
 5241  6215  6213 1
 5242  6216  6213 1
 5243  6217  6216 1
 5244  6219  6218 1
 5245  6220  6219 1
 5246  6221  6219 1
 5247  6222  6219 1
 5248  6223  6222 1
 5249  6225  6224 1
 5250  6226  6225 1
 5251  6227  6225 1
 5252  6228  6225 1
 5253  6229  6228 1
 5254  6231  6230 1
 5255  6232  6231 1
 5256  6233  6231 1
 5257  6234  6231 1
 5258  6235  6234 1
 5259  6237  6236 1
 5260  6238  6237 1
 5261  6239  6237 1
 5262  6240  6237 1
 5263  6241  6240 1
 5264  6243  6242 1
 5265  6244  6243 1
 5266  6245  6243 1
 5267  6246  6243 1
 5268  6247  6246 1
 5269  6249  6248 1
 5270  6250  6249 1
 5271  6251  6249 1
 5272  6252  6249 1
 5273  6253  6252 1
 5274  6255  6254 1
 5275  6256  6255 1
 5276  6257  6255 1
 5277  6258  6255 1
 5278  6259  6258 1
 5279  6261  6260 1
 5280  6262  6261 1
 5281  6263  6261 1
 5282  6264  6261 1
 5283  6265  6264 1
 5284  6267  6266 1
 5285  6268  6267 1
 5286  6269  6267 1
 5287  6270  6267 1
 5288  6271  6270 1
 5289  6273  6272 1
 5290  6274  6273 1
 5291  6275  6273 1
 5292  6276  6273 1
 5293  6277  6276 1
 5294  6279  6278 1
 5295  6280  6279 1
 5296  6281  6279 1
 5297  6282  6279 1
 5298  6283  6282 1
 5299  6285  6284 1
 5300  6286  6285 1
 5301  6287  6285 1
 5302  6288  6285 1
 5303  6289  6288 1
 5304  6291  6290 1
 5305  6292  6291 1
 5306  6293  6291 1
 5307  6294  6291 1
 5308  6295  6294 1
 5309  6297  6296 1
 5310  6298  6297 1
 5311  6299  6297 1
 5312  6300  6297 1
 5313  6301  6300 1
 5314  6303  6302 1
 5315  6304  6303 1
 5316  6305  6303 1
 5317  6306  6303 1
 5318  6307  6306 1
 5319  6309  6308 1
 5320  6310  6309 1
 5321  6311  6309 1
 5322  6312  6309 1
 5323  6313  6312 1
 5324  6315  6314 1
 5325  6316  6315 1
 5326  6317  6315 1
 5327  6318  6315 1
 5328  6319  6318 1
 5329  6321  6320 1
 5330  6322  6321 1
 5331  6323  6321 1
 5332  6324  6321 1
 5333  6325  6324 1
 5334  6327  6326 1
 5335  6328  6327 1
 5336  6329  6327 1
 5337  6330  6327 1
 5338  6331  6330 1
 5339  6333  6332 1
 5340  6334  6333 1
 5341  6335  6333 1
 5342  6336  6333 1
 5343  6337  6336 1
 5344  6339  6338 1
 5345  6340  6339 1
 5346  6341  6339 1
 5347  6342  6339 1
 5348  6343  6342 1
 5349  6345  6344 1
 5350  6346  6345 1
 5351  6347  6345 1
 5352  6348  6345 1
 5353  6349  6348 1
 5354  6351  6350 1
 5355  6352  6351 1
 5356  6353  6351 1
 5357  6354  6351 1
 5358  6355  6354 1
 5359  6357  6356 1
 5360  6358  6357 1
 5361  6359  6357 1
 5362  6360  6357 1
 5363  6361  6360 1
 5364  6363  6362 1
 5365  6364  6363 1
 5366  6365  6363 1
 5367  6366  6363 1
 5368  6367  6366 1
 5369  6369  6368 1
 5370  6370  6369 1
 5371  6371  6369 1
 5372  6372  6369 1
 5373  6373  6372 1
 5374  6375  6374 1
 5375  6376  6375 1
 5376  6377  6375 1
 5377  6378  6375 1
 5378  6379  6378 1
 5379  6381  6380 1
 5380  6382  6381 1
 5381  6383  6381 1
 5382  6384  6381 1
 5383  6385  6384 1
 5384  6387  6386 1
 5385  6388  6387 1
 5386  6389  6387 1
 5387  6390  6387 1
 5388  6391  6390 1
 5389  6393  6392 1
 5390  6394  6393 1
 5391  6395  6393 1
 5392  6396  6393 1
 5393  6397  6396 1
 5394  6399  6398 1
 5395  6400  6399 1
 5396  6401  6399 1
 5397  6402  6399 1
 5398  6403  6402 1
 5399  6405  6404 1
 5400  6406  6405 1
 5401  6407  6405 1
 5402  6408  6405 1
 5403  6409  6408 1
 5404  6411  6410 1
 5405  6412  6411 1
 5406  6413  6411 1
 5407  6414  6411 1
 5408  6415  6414 1
 5409  6417  6416 1
 5410  6418  6417 1
 5411  6419  6417 1
 5412  6420  6417 1
 5413  6421  6420 1
 5414  6423  6422 1
 5415  6424  6423 1
 5416  6425  6423 1
 5417  6426  6423 1
 5418  6427  6426 1
 5419  6429  6428 1
 5420  6430  6429 1
 5421  6431  6429 1
 5422  6432  6429 1
 5423  6433  6432 1
 5424  6435  6434 1
 5425  6436  6435 1
 5426  6437  6435 1
 5427  6438  6435 1
 5428  6439  6438 1
 5429  6441  6440 1
 5430  6442  6441 1
 5431  6443  6441 1
 5432  6444  6441 1
 5433  6445  6444 1
 5434  6447  6446 1
 5435  6448  6447 1
 5436  6449  6447 1
 5437  6450  6447 1
 5438  6451  6450 1
 5439  6453  6452 1
 5440  6454  6453 1
 5441  6455  6453 1
 5442  6456  6453 1
 5443  6457  6456 1
 5444  6459  6458 1
 5445  6460  6459 1
 5446  6461  6459 1
 5447  6462  6459 1
 5448  6463  6462 1
 5449  6465  6464 1
 5450  6466  6465 1
 5451  6467  6465 1
 5452  6468  6465 1
 5453  6469  6468 1
 5454  6471  6470 1
 5455  6472  6471 1
 5456  6473  6471 1
 5457  6474  6471 1
 5458  6475  6474 1
 5459  6477  6476 1
 5460  6478  6477 1
 5461  6479  6477 1
 5462  6480  6477 1
 5463  6481  6480 1
 5464  6483  6482 1
 5465  6484  6483 1
 5466  6485  6483 1
 5467  6486  6483 1
 5468  6487  6486 1
 5469  6489  6488 1
 5470  6490  6489 1
 5471  6491  6489 1
 5472  6492  6489 1
 5473  6493  6492 1
 5474  6495  6494 1
 5475  6496  6495 1
 5476  6497  6495 1
 5477  6498  6495 1
 5478  6499  6498 1
 5479  6501  6500 1
 5480  6502  6501 1
 5481  6503  6501 1
 5482  6504  6501 1
 5483  6505  6504 1
 5484  6507  6506 1
 5485  6508  6507 1
 5486  6509  6507 1
 5487  6510  6507 1
 5488  6511  6510 1
 5489  6513  6512 1
 5490  6514  6513 1
 5491  6515  6513 1
 5492  6516  6513 1
 5493  6517  6516 1
 5494  6519  6518 1
 5495  6520  6519 1
 5496  6521  6519 1
 5497  6522  6519 1
 5498  6523  6522 1
 5499  6525  6524 1
 5500  6526  6525 1
 5501  6527  6525 1
 5502  6528  6525 1
 5503  6529  6528 1
 5504  6531  6530 1
 5505  6532  6531 1
 5506  6533  6531 1
 5507  6534  6531 1
 5508  6535  6534 1
 5509  6537  6536 1
 5510  6538  6537 1
 5511  6539  6537 1
 5512  6540  6537 1
 5513  6541  6540 1
 5514  6543  6542 1
 5515  6544  6543 1
 5516  6545  6543 1
 5517  6546  6543 1
 5518  6547  6546 1
 5519  6549  6548 1
 5520  6550  6549 1
 5521  6551  6549 1
 5522  6552  6549 1
 5523  6553  6552 1
 5524  6555  6554 1
 5525  6556  6555 1
 5526  6557  6555 1
 5527  6558  6555 1
 5528  6559  6558 1
 5529  6561  6560 1
 5530  6562  6561 1
 5531  6563  6561 1
 5532  6564  6561 1
 5533  6565  6564 1
 5534  6567  6566 1
 5535  6568  6567 1
 5536  6569  6567 1
 5537  6570  6567 1
 5538  6571  6570 1
 5539  6573  6572 1
 5540  6574  6573 1
 5541  6575  6573 1
 5542  6576  6573 1
 5543  6577  6576 1
 5544  6579  6578 1
 5545  6580  6579 1
 5546  6581  6579 1
 5547  6582  6579 1
 5548  6583  6582 1
 5549  6585  6584 1
 5550  6586  6585 1
 5551  6587  6585 1
 5552  6588  6585 1
 5553  6589  6588 1
 5554  6591  6590 1
 5555  6592  6591 1
 5556  6593  6591 1
 5557  6594  6591 1
 5558  6595  6594 1
 5559  6597  6596 1
 5560  6598  6597 1
 5561  6599  6597 1
 5562  6600  6597 1
 5563  6601  6600 1
 5564  6603  6602 1
 5565  6604  6603 1
 5566  6605  6603 1
 5567  6606  6603 1
 5568  6607  6606 1
 5569  6609  6608 1
 5570  6610  6609 1
 5571  6611  6609 1
 5572  6612  6609 1
 5573  6613  6612 1
 5574  6615  6614 1
 5575  6616  6615 1
 5576  6617  6615 1
 5577  6618  6615 1
 5578  6619  6618 1
 5579  6621  6620 1
 5580  6622  6621 1
 5581  6623  6621 1
 5582  6624  6621 1
 5583  6625  6624 1
 5584  6627  6626 1
 5585  6628  6627 1
 5586  6629  6627 1
 5587  6630  6627 1
 5588  6631  6630 1
 5589  6633  6632 1
 5590  6634  6633 1
 5591  6635  6633 1
 5592  6636  6633 1
 5593  6637  6636 1
 5594  6639  6638 1
 5595  6640  6639 1
 5596  6641  6639 1
 5597  6642  6639 1
 5598  6643  6642 1
 5599  6645  6644 1
 5600  6646  6645 1
 5601  6647  6645 1
 5602  6648  6645 1
 5603  6649  6648 1
 5604  6651  6650 1
 5605  6652  6651 1
 5606  6653  6651 1
 5607  6654  6651 1
 5608  6655  6654 1
 5609  6657  6656 1
 5610  6658  6657 1
 5611  6659  6657 1
 5612  6660  6657 1
 5613  6661  6660 1
 5614  6663  6662 1
 5615  6664  6663 1
 5616  6665  6663 1
 5617  6666  6663 1
 5618  6667  6666 1
 5619  6669  6668 1
 5620  6670  6669 1
 5621  6671  6669 1
 5622  6672  6669 1
 5623  6673  6672 1
 5624  6675  6674 1
 5625  6676  6675 1
 5626  6677  6675 1
 5627  6678  6675 1
 5628  6679  6678 1
 5629  6681  6680 1
 5630  6682  6681 1
 5631  6683  6681 1
 5632  6684  6681 1
 5633  6685  6684 1
 5634  6687  6686 1
 5635  6688  6687 1
 5636  6689  6687 1
 5637  6690  6687 1
 5638  6691  6690 1
 5639  6693  6692 1
 5640  6694  6693 1
 5641  6695  6693 1
 5642  6696  6693 1
 5643  6697  6696 1
 5644  6699  6698 1
 5645  6700  6699 1
 5646  6701  6699 1
 5647  6702  6699 1
 5648  6703  6702 1
 5649  6705  6704 1
 5650  6706  6705 1
 5651  6707  6705 1
 5652  6708  6705 1
 5653  6709  6708 1
 5654  6711  6710 1
 5655  6712  6711 1
 5656  6713  6711 1
 5657  6714  6711 1
 5658  6715  6714 1
 5659  6717  6716 1
 5660  6718  6717 1
 5661  6719  6717 1
 5662  6720  6717 1
 5663  6721  6720 1
 5664  6723  6722 1
 5665  6724  6723 1
 5666  6725  6723 1
 5667  6726  6723 1
 5668  6727  6726 1
 5669  6729  6728 1
 5670  6730  6729 1
 5671  6731  6729 1
 5672  6732  6729 1
 5673  6733  6732 1
 5674  6735  6734 1
 5675  6736  6735 1
 5676  6737  6735 1
 5677  6738  6735 1
 5678  6739  6738 1
 5679  6741  6740 1
 5680  6742  6741 1
 5681  6743  6741 1
 5682  6744  6741 1
 5683  6745  6744 1
 5684  6747  6746 1
 5685  6748  6747 1
 5686  6749  6747 1
 5687  6750  6747 1
 5688  6751  6750 1
 5689  6753  6752 1
 5690  6754  6753 1
 5691  6755  6753 1
 5692  6756  6753 1
 5693  6757  6756 1
 5694  6759  6758 1
 5695  6760  6759 1
 5696  6761  6759 1
 5697  6762  6759 1
 5698  6763  6762 1
 5699  6765  6764 1
 5700  6766  6765 1
 5701  6767  6765 1
 5702  6768  6765 1
 5703  6769  6768 1
 5704  6771  6770 1
 5705  6772  6771 1
 5706  6773  6771 1
 5707  6774  6771 1
 5708  6775  6774 1
 5709  6777  6776 1
 5710  6778  6777 1
 5711  6779  6777 1
 5712  6780  6777 1
 5713  6781  6780 1
 5714  6783  6782 1
 5715  6784  6783 1
 5716  6785  6783 1
 5717  6786  6783 1
 5718  6787  6786 1
 5719  6789  6788 1
 5720  6790  6789 1
 5721  6791  6789 1
 5722  6792  6789 1
 5723  6793  6792 1
 5724  6795  6794 1
 5725  6796  6795 1
 5726  6797  6795 1
 5727  6798  6795 1
 5728  6799  6798 1
 5729  6801  6800 1
 5730  6802  6801 1
 5731  6803  6801 1
 5732  6804  6801 1
 5733  6805  6804 1
 5734  6807  6806 1
 5735  6808  6807 1
 5736  6809  6807 1
 5737  6810  6807 1
 5738  6811  6810 1
 5739  6813  6812 1
 5740  6814  6813 1
 5741  6815  6813 1
 5742  6816  6813 1
 5743  6817  6816 1
 5744  6819  6818 1
 5745  6820  6819 1
 5746  6821  6819 1
 5747  6822  6819 1
 5748  6823  6822 1
 5749  6825  6824 1
 5750  6826  6825 1
 5751  6827  6825 1
 5752  6828  6825 1
 5753  6829  6828 1
 5754  6831  6830 1
 5755  6832  6831 1
 5756  6833  6831 1
 5757  6834  6831 1
 5758  6835  6834 1
 5759  6837  6836 1
 5760  6838  6837 1
 5761  6839  6837 1
 5762  6840  6837 1
 5763  6841  6840 1
 5764  6843  6842 1
 5765  6844  6843 1
 5766  6845  6843 1
 5767  6846  6843 1
 5768  6847  6846 1
 5769  6849  6848 1
 5770  6850  6849 1
 5771  6851  6849 1
 5772  6852  6849 1
 5773  6853  6852 1
 5774  6855  6854 1
 5775  6856  6855 1
 5776  6857  6855 1
 5777  6858  6855 1
 5778  6859  6858 1
 5779  6861  6860 1
 5780  6862  6861 1
 5781  6863  6861 1
 5782  6864  6861 1
 5783  6865  6864 1
 5784  6867  6866 1
 5785  6868  6867 1
 5786  6869  6867 1
 5787  6870  6867 1
 5788  6871  6870 1
 5789  6873  6872 1
 5790  6874  6873 1
 5791  6875  6873 1
 5792  6876  6873 1
 5793  6877  6876 1
 5794  6879  6878 1
 5795  6880  6879 1
 5796  6881  6879 1
 5797  6882  6879 1
 5798  6883  6882 1
 5799  6885  6884 1
 5800  6886  6885 1
 5801  6887  6885 1
 5802  6888  6885 1
 5803  6889  6888 1
 5804  6891  6890 1
 5805  6892  6891 1
 5806  6893  6891 1
 5807  6894  6891 1
 5808  6895  6894 1
 5809  6897  6896 1
 5810  6898  6897 1
 5811  6899  6897 1
 5812  6900  6897 1
 5813  6901  6900 1
 5814  6903  6902 1
 5815  6904  6903 1
 5816  6905  6903 1
 5817  6906  6903 1
 5818  6907  6906 1
 5819  6909  6908 1
 5820  6910  6909 1
 5821  6911  6909 1
 5822  6912  6909 1
 5823  6913  6912 1
 5824  6915  6914 1
 5825  6916  6915 1
 5826  6917  6915 1
 5827  6918  6915 1
 5828  6919  6918 1
 5829  6921  6920 1
 5830  6922  6921 1
 5831  6923  6921 1
 5832  6924  6921 1
 5833  6925  6924 1
 5834  6927  6926 1
 5835  6928  6927 1
 5836  6929  6927 1
 5837  6930  6927 1
 5838  6931  6930 1
 5839  6933  6932 1
 5840  6934  6933 1
 5841  6935  6933 1
 5842  6936  6933 1
 5843  6937  6936 1
 5844  6939  6938 1
 5845  6940  6939 1
 5846  6941  6939 1
 5847  6942  6939 1
 5848  6943  6942 1
 5849  6945  6944 1
 5850  6946  6945 1
 5851  6947  6945 1
 5852  6948  6945 1
 5853  6949  6948 1
 5854  6951  6950 1
 5855  6952  6951 1
 5856  6953  6951 1
 5857  6954  6951 1
 5858  6955  6954 1
 5859  6957  6956 1
 5860  6958  6957 1
 5861  6959  6957 1
 5862  6960  6957 1
 5863  6961  6960 1
 5864  6963  6962 1
 5865  6964  6963 1
 5866  6965  6963 1
 5867  6966  6963 1
 5868  6967  6966 1
 5869  6969  6968 1
 5870  6970  6969 1
 5871  6971  6969 1
 5872  6972  6969 1
 5873  6973  6972 1
 5874  6975  6974 1
 5875  6976  6975 1
 5876  6977  6975 1
 5877  6978  6975 1
 5878  6979  6978 1
 5879  6981  6980 1
 5880  6982  6981 1
 5881  6983  6981 1
 5882  6984  6981 1
 5883  6985  6984 1
 5884  6987  6986 1
 5885  6988  6987 1
 5886  6989  6987 1
 5887  6990  6987 1
 5888  6991  6990 1
 5889  6993  6992 1
 5890  6994  6993 1
 5891  6995  6993 1
 5892  6996  6993 1
 5893  6997  6996 1
 5894  6999  6998 1
 5895  7000  6999 1
 5896  7001  6999 1
 5897  7002  6999 1
 5898  7003  7002 1
 5899  7005  7004 1
 5900  7006  7005 1
 5901  7007  7005 1
 5902  7008  7005 1
 5903  7009  7008 1
 5904  7011  7010 1
 5905  7012  7011 1
 5906  7013  7011 1
 5907  7014  7011 1
 5908  7015  7014 1
 5909  7017  7016 1
 5910  7018  7017 1
 5911  7019  7017 1
 5912  7020  7017 1
 5913  7021  7020 1
 5914  7023  7022 1
 5915  7024  7023 1
 5916  7025  7023 1
 5917  7026  7023 1
 5918  7027  7026 1
 5919  7029  7028 1
 5920  7030  7029 1
 5921  7031  7029 1
 5922  7032  7029 1
 5923  7033  7032 1
 5924  7035  7034 1
 5925  7036  7035 1
 5926  7037  7035 1
 5927  7038  7035 1
 5928  7039  7038 1
 5929  7041  7040 1
 5930  7042  7041 1
 5931  7043  7041 1
 5932  7044  7041 1
 5933  7045  7044 1
 5934  7047  7046 1
 5935  7048  7047 1
 5936  7049  7047 1
 5937  7050  7047 1
 5938  7051  7050 1
 5939  7053  7052 1
 5940  7054  7053 1
 5941  7055  7053 1
 5942  7056  7053 1
 5943  7057  7056 1
 5944  7059  7058 1
 5945  7060  7059 1
 5946  7061  7059 1
 5947  7062  7059 1
 5948  7063  7062 1
 5949  7065  7064 1
 5950  7066  7065 1
 5951  7067  7065 1
 5952  7068  7065 1
 5953  7069  7068 1
 5954  7071  7070 1
 5955  7072  7071 1
 5956  7073  7071 1
 5957  7074  7071 1
 5958  7075  7074 1
 5959  7077  7076 1
 5960  7078  7077 1
 5961  7079  7077 1
 5962  7080  7077 1
 5963  7081  7080 1
 5964  7083  7082 1
 5965  7084  7083 1
 5966  7085  7083 1
 5967  7086  7083 1
 5968  7087  7086 1
 5969  7089  7088 1
 5970  7090  7089 1
 5971  7091  7089 1
 5972  7092  7089 1
 5973  7093  7092 1
 5974  7095  7094 1
 5975  7096  7095 1
 5976  7097  7095 1
 5977  7098  7095 1
 5978  7099  7098 1
 5979  7101  7100 1
 5980  7102  7101 1
 5981  7103  7101 1
 5982  7104  7101 1
 5983  7105  7104 1
 5984  7107  7106 1
 5985  7108  7107 1
 5986  7109  7107 1
 5987  7110  7107 1
 5988  7111  7110 1
 5989  7113  7112 1
 5990  7114  7113 1
 5991  7115  7113 1
 5992  7116  7113 1
 5993  7117  7116 1
 5994  7119  7118 1
 5995  7120  7119 1
 5996  7121  7119 1
 5997  7122  7119 1
 5998  7123  7122 1
 5999  7125  7124 1
 6000  7126  7125 1
 6001  7127  7125 1
 6002  7128  7125 1
 6003  7129  7128 1
 6004  7131  7130 1
 6005  7132  7131 1
 6006  7133  7131 1
 6007  7134  7131 1
 6008  7135  7134 1
 6009  7137  7136 1
 6010  7138  7137 1
 6011  7139  7137 1
 6012  7140  7137 1
 6013  7141  7140 1
 6014  7143  7142 1
 6015  7144  7143 1
 6016  7145  7143 1
 6017  7146  7143 1
 6018  7147  7146 1
 6019  7149  7148 1
 6020  7150  7149 1
 6021  7151  7149 1
 6022  7152  7149 1
 6023  7153  7152 1
 6024  7155  7154 1
 6025  7156  7155 1
 6026  7157  7155 1
 6027  7158  7155 1
 6028  7159  7158 1
 6029  7161  7160 1
 6030  7162  7161 1
 6031  7163  7161 1
 6032  7164  7161 1
 6033  7165  7164 1
 6034  7167  7166 1
 6035  7168  7167 1
 6036  7169  7167 1
 6037  7170  7167 1
 6038  7171  7170 1
 6039  7173  7172 1
 6040  7174  7173 1
 6041  7175  7173 1
 6042  7176  7173 1
 6043  7177  7176 1
 6044  7179  7178 1
 6045  7180  7179 1
 6046  7181  7179 1
 6047  7182  7179 1
 6048  7183  7182 1
 6049  7185  7184 1
 6050  7186  7185 1
 6051  7187  7185 1
 6052  7188  7185 1
 6053  7189  7188 1
 6054  7191  7190 1
 6055  7192  7191 1
 6056  7193  7191 1
 6057  7194  7191 1
 6058  7195  7194 1
 6059  7197  7196 1
 6060  7198  7197 1
 6061  7199  7197 1
 6062  7200  7197 1
 6063  7201  7200 1
 6064  7203  7202 1
 6065  7204  7203 1
 6066  7205  7203 1
 6067  7206  7203 1
 6068  7207  7206 1
 6069  7209  7208 1
 6070  7210  7209 1
 6071  7211  7209 1
 6072  7212  7209 1
 6073  7213  7212 1
 6074  7215  7214 1
 6075  7216  7215 1
 6076  7217  7215 1
 6077  7218  7215 1
 6078  7219  7218 1
 6079  7221  7220 1
 6080  7222  7221 1
 6081  7223  7221 1
 6082  7224  7221 1
 6083  7225  7224 1
 6084  7227  7226 1
 6085  7228  7227 1
 6086  7229  7227 1
 6087  7230  7227 1
 6088  7231  7230 1
 6089  7233  7232 1
 6090  7234  7233 1
 6091  7235  7233 1
 6092  7236  7233 1
 6093  7237  7236 1
 6094  7239  7238 1
 6095  7240  7239 1
 6096  7241  7239 1
 6097  7242  7239 1
 6098  7243  7242 1
 6099  7245  7244 1
 6100  7246  7245 1
 6101  7247  7245 1
 6102  7248  7245 1
 6103  7249  7248 1
 6104  7251  7250 1
 6105  7252  7251 1
 6106  7253  7251 1
 6107  7254  7251 1
 6108  7255  7254 1
 6109  7257  7256 1
 6110  7258  7257 1
 6111  7259  7257 1
 6112  7260  7257 1
 6113  7261  7260 1
 6114  7263  7262 1
 6115  7264  7263 1
 6116  7265  7263 1
 6117  7266  7263 1
 6118  7267  7266 1
 6119  7269  7268 1
 6120  7270  7269 1
 6121  7271  7269 1
 6122  7272  7269 1
 6123  7273  7272 1
 6124  7275  7274 1
 6125  7276  7275 1
 6126  7277  7275 1
 6127  7278  7275 1
 6128  7279  7278 1
 6129  7281  7280 1
 6130  7282  7281 1
 6131  7283  7281 1
 6132  7284  7281 1
 6133  7285  7284 1
 6134  7287  7286 1
 6135  7288  7287 1
 6136  7289  7287 1
 6137  7290  7287 1
 6138  7291  7290 1
 6139  7293  7292 1
 6140  7294  7293 1
 6141  7295  7293 1
 6142  7296  7293 1
 6143  7297  7296 1
 6144  7299  7298 1
 6145  7300  7299 1
 6146  7301  7299 1
 6147  7302  7299 1
 6148  7303  7302 1
 6149  7305  7304 1
 6150  7306  7305 1
 6151  7307  7305 1
 6152  7308  7305 1
 6153  7309  7308 1
 6154  7311  7310 1
 6155  7312  7311 1
 6156  7313  7311 1
 6157  7314  7311 1
 6158  7315  7314 1
 6159  7317  7316 1
 6160  7318  7317 1
 6161  7319  7317 1
 6162  7320  7317 1
 6163  7321  7320 1
 6164  7323  7322 1
 6165  7324  7323 1
 6166  7325  7323 1
 6167  7326  7323 1
 6168  7327  7326 1
 6169  7329  7328 1
 6170  7330  7329 1
 6171  7331  7329 1
 6172  7332  7329 1
 6173  7333  7332 1
 6174  7335  7334 1
 6175  7336  7335 1
 6176  7337  7335 1
 6177  7338  7335 1
 6178  7339  7338 1
 6179  7341  7340 1
 6180  7342  7341 1
 6181  7343  7341 1
 6182  7344  7341 1
 6183  7345  7344 1
 6184  7347  7346 1
 6185  7348  7347 1
 6186  7349  7347 1
 6187  7350  7347 1
 6188  7351  7350 1
 6189  7353  7352 1
 6190  7354  7353 1
 6191  7355  7353 1
 6192  7356  7353 1
 6193  7357  7356 1
 6194  7359  7358 1
 6195  7360  7359 1
 6196  7361  7359 1
 6197  7362  7359 1
 6198  7363  7362 1
 6199  7365  7364 1
 6200  7366  7365 1
 6201  7367  7365 1
 6202  7368  7365 1
 6203  7369  7368 1
 6204  7371  7370 1
 6205  7372  7371 1
 6206  7373  7371 1
 6207  7374  7371 1
 6208  7375  7374 1
 6209  7377  7376 1
 6210  7378  7377 1
 6211  7379  7377 1
 6212  7380  7377 1
 6213  7381  7380 1
 6214  7383  7382 1
 6215  7384  7383 1
 6216  7385  7383 1
 6217  7386  7383 1
 6218  7387  7386 1
 6219  7389  7388 1
 6220  7390  7389 1
 6221  7391  7389 1
 6222  7392  7389 1
 6223  7393  7392 1
 6224  7395  7394 1
 6225  7396  7395 1
 6226  7397  7395 1
 6227  7398  7395 1
 6228  7399  7398 1
 6229  7401  7400 1
 6230  7402  7401 1
 6231  7403  7401 1
 6232  7404  7401 1
 6233  7405  7404 1
 6234  7407  7406 1
 6235  7408  7407 1
 6236  7409  7407 1
 6237  7410  7407 1
 6238  7411  7410 1
 6239  7413  7412 1
 6240  7414  7413 1
 6241  7415  7413 1
 6242  7416  7413 1
 6243  7417  7416 1
 6244  7419  7418 1
 6245  7420  7419 1
 6246  7421  7419 1
 6247  7422  7419 1
 6248  7423  7422 1
 6249  7425  7424 1
 6250  7426  7425 1
 6251  7427  7425 1
 6252  7428  7425 1
 6253  7429  7428 1
 6254  7431  7430 1
 6255  7432  7431 1
 6256  7433  7431 1
 6257  7434  7431 1
 6258  7435  7434 1
 6259  7437  7436 1
 6260  7438  7437 1
 6261  7439  7437 1
 6262  7440  7437 1
 6263  7441  7440 1
 6264  7443  7442 1
 6265  7444  7443 1
 6266  7445  7443 1
 6267  7446  7443 1
 6268  7447  7446 1
 6269  7449  7448 1
 6270  7450  7449 1
 6271  7451  7449 1
 6272  7452  7449 1
 6273  7453  7452 1
 6274  7455  7454 1
 6275  7456  7455 1
 6276  7457  7455 1
 6277  7458  7455 1
 6278  7459  7458 1
 6279  7461  7460 1
 6280  7462  7461 1
 6281  7463  7461 1
 6282  7464  7461 1
 6283  7465  7464 1
 6284  7467  7466 1
 6285  7468  7467 1
 6286  7469  7467 1
 6287  7470  7467 1
 6288  7471  7470 1
 6289  7473  7472 1
 6290  7474  7473 1
 6291  7475  7473 1
 6292  7476  7473 1
 6293  7477  7476 1
 6294  7479  7478 1
 6295  7480  7479 1
 6296  7481  7479 1
 6297  7482  7479 1
 6298  7483  7482 1
 6299  7485  7484 1
 6300  7486  7485 1
 6301  7487  7485 1
 6302  7488  7485 1
 6303  7489  7488 1
 6304  7491  7490 1
 6305  7492  7491 1
 6306  7493  7491 1
 6307  7494  7491 1
 6308  7495  7494 1
 6309  7497  7496 1
 6310  7498  7497 1
 6311  7499  7497 1
 6312  7500  7497 1
 6313  7501  7500 1
 6314  7503  7502 1
 6315  7504  7503 1
 6316  7505  7503 1
 6317  7506  7503 1
 6318  7507  7506 1
 6319  7509  7508 1
 6320  7510  7509 1
 6321  7511  7509 1
 6322  7512  7509 1
 6323  7513  7512 1
 6324  7515  7514 1
 6325  7516  7515 1
 6326  7517  7515 1
 6327  7518  7515 1
 6328  7519  7518 1
 6329  7521  7520 1
 6330  7522  7521 1
 6331  7523  7521 1
 6332  7524  7521 1
 6333  7525  7524 1
 6334  7527  7526 1
 6335  7528  7527 1
 6336  7529  7527 1
 6337  7530  7527 1
 6338  7531  7530 1
 6339  7533  7532 1
 6340  7534  7533 1
 6341  7535  7533 1
 6342  7536  7533 1
 6343  7537  7536 1
 6344  7539  7538 1
 6345  7540  7539 1
 6346  7541  7539 1
 6347  7542  7539 1
 6348  7543  7542 1
 6349  7545  7544 1
 6350  7546  7545 1
 6351  7547  7545 1
 6352  7548  7545 1
 6353  7549  7548 1
 6354  7551  7550 1
 6355  7552  7551 1
 6356  7553  7551 1
 6357  7554  7551 1
 6358  7555  7554 1
 6359  7557  7556 1
 6360  7558  7557 1
 6361  7559  7557 1
 6362  7560  7557 1
 6363  7561  7560 1
 6364  7563  7562 1
 6365  7564  7563 1
 6366  7565  7563 1
 6367  7566  7563 1
 6368  7567  7566 1
 6369  7569  7568 1
 6370  7570  7569 1
 6371  7571  7569 1
 6372  7572  7569 1
 6373  7573  7572 1
 6374  7575  7574 1
 6375  7576  7575 1
 6376  7577  7575 1
 6377  7578  7575 1
 6378  7579  7578 1
 6379  7581  7580 1
 6380  7582  7581 1
 6381  7583  7581 1
 6382  7584  7581 1
 6383  7585  7584 1
 6384  7587  7586 1
 6385  7588  7587 1
 6386  7589  7587 1
 6387  7590  7587 1
 6388  7591  7590 1
 6389  7593  7592 1
 6390  7594  7593 1
 6391  7595  7593 1
 6392  7596  7593 1
 6393  7597  7596 1
 6394  7599  7598 1
 6395  7600  7599 1
 6396  7601  7599 1
 6397  7602  7599 1
 6398  7603  7602 1
 6399  7605  7604 1
 6400  7606  7605 1
 6401  7607  7605 1
 6402  7608  7605 1
 6403  7609  7608 1
 6404  7611  7610 1
 6405  7612  7611 1
 6406  7613  7611 1
 6407  7614  7611 1
 6408  7615  7614 1
 6409  7617  7616 1
 6410  7618  7617 1
 6411  7619  7617 1
 6412  7620  7617 1
 6413  7621  7620 1
 6414  7623  7622 1
 6415  7624  7623 1
 6416  7625  7623 1
 6417  7626  7623 1
 6418  7627  7626 1
 6419  7629  7628 1
 6420  7630  7629 1
 6421  7631  7629 1
 6422  7632  7629 1
 6423  7633  7632 1
 6424  7635  7634 1
 6425  7636  7635 1
 6426  7637  7635 1
 6427  7638  7635 1
 6428  7639  7638 1
 6429  7641  7640 1
 6430  7642  7641 1
 6431  7643  7641 1
 6432  7644  7641 1
 6433  7645  7644 1
 6434  7647  7646 1
 6435  7648  7647 1
 6436  7649  7647 1
 6437  7650  7647 1
 6438  7651  7650 1
 6439  7653  7652 1
 6440  7654  7653 1
 6441  7655  7653 1
 6442  7656  7653 1
 6443  7657  7656 1
 6444  7659  7658 1
 6445  7660  7659 1
 6446  7661  7659 1
 6447  7662  7659 1
 6448  7663  7662 1
 6449  7665  7664 1
 6450  7666  7665 1
 6451  7667  7665 1
 6452  7668  7665 1
 6453  7669  7668 1
 6454  7671  7670 1
 6455  7672  7671 1
 6456  7673  7671 1
 6457  7674  7671 1
 6458  7675  7674 1
 6459  7677  7676 1
 6460  7678  7677 1
 6461  7679  7677 1
 6462  7680  7677 1
 6463  7681  7680 1
 6464  7683  7682 1
 6465  7684  7683 1
 6466  7685  7683 1
 6467  7686  7683 1
 6468  7687  7686 1
 6469  7689  7688 1
 6470  7690  7689 1
 6471  7691  7689 1
 6472  7692  7689 1
 6473  7693  7692 1
 6474  7695  7694 1
 6475  7696  7695 1
 6476  7697  7695 1
 6477  7698  7695 1
 6478  7699  7698 1
 6479  7701  7700 1
 6480  7702  7701 1
 6481  7703  7701 1
 6482  7704  7701 1
 6483  7705  7704 1
 6484  7707  7706 1
 6485  7708  7707 1
 6486  7709  7707 1
 6487  7710  7707 1
 6488  7711  7710 1
 6489  7713  7712 1
 6490  7714  7713 1
 6491  7715  7713 1
 6492  7716  7713 1
 6493  7717  7716 1
 6494  7719  7718 1
 6495  7720  7719 1
 6496  7721  7719 1
 6497  7722  7719 1
 6498  7723  7722 1
 6499  7725  7724 1
 6500  7726  7725 1
 6501  7727  7725 1
 6502  7728  7725 1
 6503  7729  7728 1
 6504  7731  7730 1
 6505  7732  7731 1
 6506  7733  7731 1
 6507  7734  7731 1
 6508  7735  7734 1
 6509  7737  7736 1
 6510  7738  7737 1
 6511  7739  7737 1
 6512  7740  7737 1
 6513  7741  7740 1
 6514  7743  7742 1
 6515  7744  7743 1
 6516  7745  7743 1
 6517  7746  7743 1
 6518  7747  7746 1
 6519  7749  7748 1
 6520  7750  7749 1
 6521  7751  7749 1
 6522  7752  7749 1
 6523  7753  7752 1
 6524  7755  7754 1
 6525  7756  7755 1
 6526  7757  7755 1
 6527  7758  7755 1
 6528  7759  7758 1
 6529  7761  7760 1
 6530  7762  7761 1
 6531  7763  7761 1
 6532  7764  7761 1
 6533  7765  7764 1
 6534  7767  7766 1
 6535  7768  7767 1
 6536  7769  7767 1
 6537  7770  7767 1
 6538  7771  7770 1
 6539  7773  7772 1
 6540  7774  7773 1
 6541  7775  7773 1
 6542  7776  7773 1
 6543  7777  7776 1
 6544  7779  7778 1
 6545  7780  7779 1
 6546  7781  7779 1
 6547  7782  7779 1
 6548  7783  7782 1
 6549  7785  7784 1
 6550  7786  7785 1
 6551  7787  7785 1
 6552  7788  7785 1
 6553  7789  7788 1
 6554  7791  7790 1
 6555  7792  7791 1
 6556  7793  7791 1
 6557  7794  7791 1
 6558  7795  7794 1
 6559  7797  7796 1
 6560  7798  7797 1
 6561  7799  7797 1
 6562  7800  7797 1
 6563  7801  7800 1
 6564  7803  7802 1
 6565  7804  7803 1
 6566  7805  7803 1
 6567  7806  7803 1
 6568  7807  7806 1
 6569  7809  7808 1
 6570  7810  7809 1
 6571  7811  7809 1
 6572  7812  7809 1
 6573  7813  7812 1
 6574  7815  7814 1
 6575  7816  7815 1
 6576  7817  7815 1
 6577  7818  7815 1
 6578  7819  7818 1
 6579  7821  7820 1
 6580  7822  7821 1
 6581  7823  7821 1
 6582  7824  7821 1
 6583  7825  7824 1
 6584  7827  7826 1
 6585  7828  7827 1
 6586  7829  7827 1
 6587  7830  7827 1
 6588  7831  7830 1
 6589  7833  7832 1
 6590  7834  7833 1
 6591  7835  7833 1
 6592  7836  7833 1
 6593  7837  7836 1
 6594  7839  7838 1
 6595  7840  7839 1
 6596  7841  7839 1
 6597  7842  7839 1
 6598  7843  7842 1
 6599  7845  7844 1
 6600  7846  7845 1
 6601  7847  7845 1
 6602  7848  7845 1
 6603  7849  7848 1
 6604  7851  7850 1
 6605  7852  7851 1
 6606  7853  7851 1
 6607  7854  7851 1
 6608  7855  7854 1
 6609  7857  7856 1
 6610  7858  7857 1
 6611  7859  7857 1
 6612  7860  7857 1
 6613  7861  7860 1
 6614  7863  7862 1
 6615  7864  7863 1
 6616  7865  7863 1
 6617  7866  7863 1
 6618  7867  7866 1
 6619  7869  7868 1
 6620  7870  7869 1
 6621  7871  7869 1
 6622  7872  7869 1
 6623  7873  7872 1
 6624  7875  7874 1
 6625  7876  7875 1
 6626  7877  7875 1
 6627  7878  7875 1
 6628  7879  7878 1
 6629  7881  7880 1
 6630  7882  7881 1
 6631  7883  7881 1
 6632  7884  7881 1
 6633  7885  7884 1
 6634  7887  7886 1
 6635  7888  7887 1
 6636  7889  7887 1
 6637  7890  7887 1
 6638  7891  7890 1
 6639  7893  7892 1
 6640  7894  7893 1
 6641  7895  7893 1
 6642  7896  7893 1
 6643  7897  7896 1
 6644  7899  7898 1
 6645  7900  7899 1
 6646  7901  7899 1
 6647  7902  7899 1
 6648  7903  7902 1
 6649  7905  7904 1
 6650  7906  7905 1
 6651  7907  7905 1
 6652  7908  7905 1
 6653  7909  7908 1
 6654  7911  7910 1
 6655  7912  7911 1
 6656  7913  7911 1
 6657  7914  7911 1
 6658  7915  7914 1
 6659  7917  7916 1
 6660  7918  7917 1
 6661  7919  7917 1
 6662  7920  7917 1
 6663  7921  7920 1
 6664  7923  7922 1
 6665  7924  7923 1
 6666  7925  7923 1
 6667  7926  7923 1
 6668  7927  7926 1
 6669  7929  7928 1
 6670  7930  7929 1
 6671  7931  7929 1
 6672  7932  7929 1
 6673  7933  7932 1
 6674  7935  7934 1
 6675  7936  7935 1
 6676  7937  7935 1
 6677  7938  7935 1
 6678  7939  7938 1
 6679  7941  7940 1
 6680  7942  7941 1
 6681  7943  7941 1
 6682  7944  7941 1
 6683  7945  7944 1
 6684  7947  7946 1
 6685  7948  7947 1
 6686  7949  7947 1
 6687  7950  7947 1
 6688  7951  7950 1
 6689  7953  7952 1
 6690  7954  7953 1
 6691  7955  7953 1
 6692  7956  7953 1
 6693  7957  7956 1
 6694  7959  7958 1
 6695  7960  7959 1
 6696  7961  7959 1
 6697  7962  7959 1
 6698  7963  7962 1
 6699  7965  7964 1
 6700  7966  7965 1
 6701  7967  7965 1
 6702  7968  7965 1
 6703  7969  7968 1
 6704  7971  7970 1
 6705  7972  7971 1
 6706  7973  7971 1
 6707  7974  7971 1
 6708  7975  7974 1
 6709  7977  7976 1
 6710  7978  7977 1
 6711  7979  7977 1
 6712  7980  7977 1
 6713  7981  7980 1
 6714  7983  7982 1
 6715  7984  7983 1
 6716  7985  7983 1
 6717  7986  7983 1
 6718  7987  7986 1
 6719  7989  7988 1
 6720  7990  7989 1
 6721  7991  7989 1
 6722  7992  7989 1
 6723  7993  7992 1
 6724  7995  7994 1
 6725  7996  7995 1
 6726  7997  7995 1
 6727  7998  7995 1
 6728  7999  7998 1
 6729  8001  8000 1
 6730  8002  8001 1
 6731  8003  8001 1
 6732  8004  8001 1
 6733  8005  8004 1
 6734  8007  8006 1
 6735  8008  8007 1
 6736  8009  8007 1
 6737  8010  8007 1
 6738  8011  8010 1
 6739  8013  8012 1
 6740  8014  8013 1
 6741  8015  8013 1
 6742  8016  8013 1
 6743  8017  8016 1
 6744  8019  8018 1
 6745  8020  8019 1
 6746  8021  8019 1
 6747  8022  8019 1
 6748  8023  8022 1
 6749  8025  8024 1
 6750  8026  8025 1
 6751  8027  8025 1
 6752  8028  8025 1
 6753  8029  8028 1
 6754  8031  8030 1
 6755  8032  8031 1
 6756  8033  8031 1
 6757  8034  8031 1
 6758  8035  8034 1
 6759  8037  8036 1
 6760  8038  8037 1
 6761  8039  8037 1
 6762  8040  8037 1
 6763  8041  8040 1
 6764  8043  8042 1
 6765  8044  8043 1
 6766  8045  8043 1
 6767  8046  8043 1
 6768  8047  8046 1
 6769  8049  8048 1
 6770  8050  8049 1
 6771  8051  8049 1
 6772  8052  8049 1
 6773  8053  8052 1
 6774  8055  8054 1
 6775  8056  8055 1
 6776  8057  8055 1
 6777  8058  8055 1
 6778  8059  8058 1
 6779  8061  8060 1
 6780  8062  8061 1
 6781  8063  8061 1
 6782  8064  8061 1
 6783  8065  8064 1
 6784  8067  8066 1
 6785  8068  8067 1
 6786  8069  8067 1
 6787  8070  8067 1
 6788  8071  8070 1
 6789  8073  8072 1
 6790  8074  8073 1
 6791  8075  8073 1
 6792  8076  8073 1
 6793  8077  8076 1
 6794  8079  8078 1
 6795  8080  8079 1
 6796  8081  8079 1
 6797  8082  8079 1
 6798  8083  8082 1
 6799  8085  8084 1
 6800  8086  8085 1
 6801  8087  8085 1
 6802  8088  8085 1
 6803  8089  8088 1
 6804  8091  8090 1
 6805  8092  8091 1
 6806  8093  8091 1
 6807  8094  8091 1
 6808  8095  8094 1
 6809  8097  8096 1
 6810  8098  8097 1
 6811  8099  8097 1
 6812  8100  8097 1
 6813  8101  8100 1
 6814  8103  8102 1
 6815  8104  8103 1
 6816  8105  8103 1
 6817  8106  8103 1
 6818  8107  8106 1
 6819  8109  8108 1
 6820  8110  8109 1
 6821  8111  8109 1
 6822  8112  8109 1
 6823  8113  8112 1
 6824  8115  8114 1
 6825  8116  8115 1
 6826  8117  8115 1
 6827  8118  8115 1
 6828  8119  8118 1
 6829  8121  8120 1
 6830  8122  8121 1
 6831  8123  8121 1
 6832  8124  8121 1
 6833  8125  8124 1
 6834  8127  8126 1
 6835  8128  8127 1
 6836  8129  8127 1
 6837  8130  8127 1
 6838  8131  8130 1
 6839  8133  8132 1
 6840  8134  8133 1
 6841  8135  8133 1
 6842  8136  8133 1
 6843  8137  8136 1
 6844  8139  8138 1
 6845  8140  8139 1
 6846  8141  8139 1
 6847  8142  8139 1
 6848  8143  8142 1
 6849  8145  8144 1
 6850  8146  8145 1
 6851  8147  8145 1
 6852  8148  8145 1
 6853  8149  8148 1
 6854  8151  8150 1
 6855  8152  8151 1
 6856  8153  8151 1
 6857  8154  8151 1
 6858  8155  8154 1
 6859  8157  8156 1
 6860  8158  8157 1
 6861  8159  8157 1
 6862  8160  8157 1
 6863  8161  8160 1
 6864  8163  8162 1
 6865  8164  8163 1
 6866  8165  8163 1
 6867  8166  8163 1
 6868  8167  8166 1
 6869  8169  8168 1
 6870  8170  8169 1
 6871  8171  8169 1
 6872  8172  8169 1
 6873  8173  8172 1
 6874  8175  8174 1
 6875  8176  8175 1
 6876  8177  8175 1
 6877  8178  8175 1
 6878  8179  8178 1
 6879  8181  8180 1
 6880  8182  8181 1
 6881  8183  8181 1
 6882  8184  8181 1
 6883  8185  8184 1
 6884  8187  8186 1
 6885  8188  8187 1
 6886  8189  8187 1
 6887  8190  8187 1
 6888  8191  8190 1
 6889  8193  8192 1
 6890  8194  8193 1
 6891  8195  8193 1
 6892  8196  8193 1
 6893  8197  8196 1
 6894  8199  8198 1
 6895  8200  8199 1
 6896  8201  8199 1
 6897  8202  8199 1
 6898  8203  8202 1
 6899  8205  8204 1
 6900  8206  8205 1
 6901  8207  8205 1
 6902  8208  8205 1
 6903  8209  8208 1
 6904  8211  8210 1
 6905  8212  8211 1
 6906  8213  8211 1
 6907  8214  8211 1
 6908  8215  8214 1
 6909  8217  8216 1
 6910  8218  8217 1
 6911  8219  8217 1
 6912  8220  8217 1
 6913  8221  8220 1
 6914  8223  8222 1
 6915  8224  8223 1
 6916  8225  8223 1
 6917  8226  8223 1
 6918  8227  8226 1
 6919  8229  8228 1
 6920  8230  8229 1
 6921  8231  8229 1
 6922  8232  8229 1
 6923  8233  8232 1
 6924  8235  8234 1
 6925  8236  8235 1
 6926  8237  8235 1
 6927  8238  8235 1
 6928  8239  8238 1
 6929  8241  8240 1
 6930  8242  8241 1
 6931  8243  8241 1
 6932  8244  8241 1
 6933  8245  8244 1
 6934  8247  8246 1
 6935  8248  8247 1
 6936  8249  8247 1
 6937  8250  8247 1
 6938  8251  8250 1
 6939  8253  8252 1
 6940  8254  8253 1
 6941  8255  8253 1
 6942  8256  8253 1
 6943  8257  8256 1
 6944  8259  8258 1
 6945  8260  8259 1
 6946  8261  8259 1
 6947  8262  8259 1
 6948  8263  8262 1
 6949  8265  8264 1
 6950  8266  8265 1
 6951  8267  8265 1
 6952  8268  8265 1
 6953  8269  8268 1
 6954  8271  8270 1
 6955  8272  8271 1
 6956  8273  8271 1
 6957  8274  8271 1
 6958  8275  8274 1
 6959  8277  8276 1
 6960  8278  8277 1
 6961  8279  8277 1
 6962  8280  8277 1
 6963  8281  8280 1
 6964  8283  8282 1
 6965  8284  8283 1
 6966  8285  8283 1
 6967  8286  8283 1
 6968  8287  8286 1
 6969  8289  8288 1
 6970  8290  8289 1
 6971  8291  8289 1
 6972  8292  8289 1
 6973  8293  8292 1
 6974  8295  8294 1
 6975  8296  8295 1
 6976  8297  8295 1
 6977  8298  8295 1
 6978  8299  8298 1
 6979  8301  8300 1
 6980  8302  8301 1
 6981  8303  8301 1
 6982  8304  8301 1
 6983  8305  8304 1
 6984  8307  8306 1
 6985  8308  8307 1
 6986  8309  8307 1
 6987  8310  8307 1
 6988  8311  8310 1
 6989  8313  8312 1
 6990  8314  8313 1
 6991  8315  8313 1
 6992  8316  8313 1
 6993  8317  8316 1
 6994  8319  8318 1
 6995  8320  8319 1
 6996  8321  8319 1
 6997  8322  8319 1
 6998  8323  8322 1
 6999  8325  8324 1
 7000  8326  8325 1
 7001  8327  8325 1
 7002  8328  8325 1
 7003  8329  8328 1
 7004  8331  8330 1
 7005  8332  8331 1
 7006  8333  8331 1
 7007  8334  8331 1
 7008  8335  8334 1
 7009  8337  8336 1
 7010  8338  8337 1
 7011  8339  8337 1
 7012  8340  8337 1
 7013  8341  8340 1
 7014  8343  8342 1
 7015  8344  8343 1
 7016  8345  8343 1
 7017  8346  8343 1
 7018  8347  8346 1
 7019  8349  8348 1
 7020  8350  8349 1
 7021  8351  8349 1
 7022  8352  8349 1
 7023  8353  8352 1
 7024  8355  8354 1
 7025  8356  8355 1
 7026  8357  8355 1
 7027  8358  8355 1
 7028  8359  8358 1
 7029  8361  8360 1
 7030  8362  8361 1
 7031  8363  8361 1
 7032  8364  8361 1
 7033  8365  8364 1
 7034  8367  8366 1
 7035  8368  8367 1
 7036  8369  8367 1
 7037  8370  8367 1
 7038  8371  8370 1
 7039  8373  8372 1
 7040  8374  8373 1
 7041  8375  8373 1
 7042  8376  8373 1
 7043  8377  8376 1
 7044  8379  8378 1
 7045  8380  8379 1
 7046  8381  8379 1
 7047  8382  8379 1
 7048  8383  8382 1
 7049  8385  8384 1
 7050  8386  8385 1
 7051  8387  8385 1
 7052  8388  8385 1
 7053  8389  8388 1
 7054  8391  8390 1
 7055  8392  8391 1
 7056  8393  8391 1
 7057  8394  8391 1
 7058  8395  8394 1
 7059  8397  8396 1
 7060  8398  8397 1
 7061  8399  8397 1
 7062  8400  8397 1
 7063  8401  8400 1
 7064  8403  8402 1
 7065  8404  8403 1
 7066  8405  8403 1
 7067  8406  8403 1
 7068  8407  8406 1
 7069  8409  8408 1
 7070  8410  8409 1
 7071  8411  8409 1
 7072  8412  8409 1
 7073  8413  8412 1
 7074  8415  8414 1
 7075  8416  8415 1
 7076  8417  8415 1
 7077  8418  8415 1
 7078  8419  8418 1
 7079  8421  8420 1
 7080  8422  8421 1
 7081  8423  8421 1
 7082  8424  8421 1
 7083  8425  8424 1
 7084  8427  8426 1
 7085  8428  8427 1
 7086  8429  8427 1
 7087  8430  8427 1
 7088  8431  8430 1
 7089  8433  8432 1
 7090  8434  8433 1
 7091  8435  8433 1
 7092  8436  8433 1
 7093  8437  8436 1
 7094  8439  8438 1
 7095  8440  8439 1
 7096  8441  8439 1
 7097  8442  8439 1
 7098  8443  8442 1
 7099  8445  8444 1
 7100  8446  8445 1
 7101  8447  8445 1
 7102  8448  8445 1
 7103  8449  8448 1
 7104  8451  8450 1
 7105  8452  8451 1
 7106  8453  8451 1
 7107  8454  8451 1
 7108  8455  8454 1
 7109  8457  8456 1
 7110  8458  8457 1
 7111  8459  8457 1
 7112  8460  8457 1
 7113  8461  8460 1
 7114  8463  8462 1
 7115  8464  8463 1
 7116  8465  8463 1
 7117  8466  8463 1
 7118  8467  8466 1
 7119  8469  8468 1
 7120  8470  8469 1
 7121  8471  8469 1
 7122  8472  8469 1
 7123  8473  8472 1
 7124  8475  8474 1
 7125  8476  8475 1
 7126  8477  8475 1
 7127  8478  8475 1
 7128  8479  8478 1
 7129  8481  8480 1
 7130  8482  8481 1
 7131  8483  8481 1
 7132  8484  8481 1
 7133  8485  8484 1
 7134  8487  8486 1
 7135  8488  8487 1
 7136  8489  8487 1
 7137  8490  8487 1
 7138  8491  8490 1
 7139  8493  8492 1
 7140  8494  8493 1
 7141  8495  8493 1
 7142  8496  8493 1
 7143  8497  8496 1
 7144  8499  8498 1
 7145  8500  8499 1
 7146  8501  8499 1
 7147  8502  8499 1
 7148  8503  8502 1
 7149  8505  8504 1
 7150  8506  8505 1
 7151  8507  8505 1
 7152  8508  8505 1
 7153  8509  8508 1
 7154  8511  8510 1
 7155  8512  8511 1
 7156  8513  8511 1
 7157  8514  8511 1
 7158  8515  8514 1
 7159  8517  8516 1
 7160  8518  8517 1
 7161  8519  8517 1
 7162  8520  8517 1
 7163  8521  8520 1
 7164  8523  8522 1
 7165  8524  8523 1
 7166  8525  8523 1
 7167  8526  8523 1
 7168  8527  8526 1
 7169  8529  8528 1
 7170  8530  8529 1
 7171  8531  8529 1
 7172  8532  8529 1
 7173  8533  8532 1
 7174  8535  8534 1
 7175  8536  8535 1
 7176  8537  8535 1
 7177  8538  8535 1
 7178  8539  8538 1
 7179  8541  8540 1
 7180  8542  8541 1
 7181  8543  8541 1
 7182  8544  8541 1
 7183  8545  8544 1
 7184  8547  8546 1
 7185  8548  8547 1
 7186  8549  8547 1
 7187  8550  8547 1
 7188  8551  8550 1
 7189  8553  8552 1
 7190  8554  8553 1
 7191  8555  8553 1
 7192  8556  8553 1
 7193  8557  8556 1
 7194  8559  8558 1
 7195  8560  8559 1
 7196  8561  8559 1
 7197  8562  8559 1
 7198  8563  8562 1
 7199  8565  8564 1
 7200  8566  8565 1
 7201  8567  8565 1
 7202  8568  8565 1
 7203  8569  8568 1
 7204  8571  8570 1
 7205  8572  8571 1
 7206  8573  8571 1
 7207  8574  8571 1
 7208  8575  8574 1
 7209  8577  8576 1
 7210  8578  8577 1
 7211  8579  8577 1
 7212  8580  8577 1
 7213  8581  8580 1
 7214  8583  8582 1
 7215  8584  8583 1
 7216  8585  8583 1
 7217  8586  8583 1
 7218  8587  8586 1
 7219  8589  8588 1
 7220  8590  8589 1
 7221  8591  8589 1
 7222  8592  8589 1
 7223  8593  8592 1
 7224  8595  8594 1
 7225  8596  8595 1
 7226  8597  8595 1
 7227  8598  8595 1
 7228  8599  8598 1
 7229  8601  8600 1
 7230  8602  8601 1
 7231  8603  8601 1
 7232  8604  8601 1
 7233  8605  8604 1
 7234  8607  8606 1
 7235  8608  8607 1
 7236  8609  8607 1
 7237  8610  8607 1
 7238  8611  8610 1
 7239  8613  8612 1
 7240  8614  8613 1
 7241  8615  8613 1
 7242  8616  8613 1
 7243  8617  8616 1
 7244  8619  8618 1
 7245  8620  8619 1
 7246  8621  8619 1
 7247  8622  8619 1
 7248  8623  8622 1
 7249  8625  8624 1
 7250  8626  8625 1
 7251  8627  8625 1
 7252  8628  8625 1
 7253  8629  8628 1
 7254  8631  8630 1
 7255  8632  8631 1
 7256  8633  8631 1
 7257  8634  8631 1
 7258  8635  8634 1
 7259  8637  8636 1
 7260  8638  8637 1
 7261  8639  8637 1
 7262  8640  8637 1
 7263  8641  8640 1
 7264  8643  8642 1
 7265  8644  8643 1
 7266  8645  8643 1
 7267  8646  8643 1
 7268  8647  8646 1
 7269  8649  8648 1
 7270  8650  8649 1
 7271  8651  8649 1
 7272  8652  8649 1
 7273  8653  8652 1
 7274  8655  8654 1
 7275  8656  8655 1
 7276  8657  8655 1
 7277  8658  8655 1
 7278  8659  8658 1
 7279  8661  8660 1
 7280  8662  8661 1
 7281  8663  8661 1
 7282  8664  8661 1
 7283  8665  8664 1
 7284  8667  8666 1
 7285  8668  8667 1
 7286  8669  8667 1
 7287  8670  8667 1
 7288  8671  8670 1
 7289  8673  8672 1
 7290  8674  8673 1
 7291  8675  8673 1
 7292  8676  8673 1
 7293  8677  8676 1
 7294  8679  8678 1
 7295  8680  8679 1
 7296  8681  8679 1
 7297  8682  8679 1
 7298  8683  8682 1
 7299  8685  8684 1
 7300  8686  8685 1
 7301  8687  8685 1
 7302  8688  8685 1
 7303  8689  8688 1
 7304  8691  8690 1
 7305  8692  8691 1
 7306  8693  8691 1
 7307  8694  8691 1
 7308  8695  8694 1
 7309  8697  8696 1
 7310  8698  8697 1
 7311  8699  8697 1
 7312  8700  8697 1
 7313  8701  8700 1
 7314  8703  8702 1
 7315  8704  8703 1
 7316  8705  8703 1
 7317  8706  8703 1
 7318  8707  8706 1
 7319  8709  8708 1
 7320  8710  8709 1
 7321  8711  8709 1
 7322  8712  8709 1
 7323  8713  8712 1
 7324  8715  8714 1
 7325  8716  8715 1
 7326  8717  8715 1
 7327  8718  8715 1
 7328  8719  8718 1
 7329  8721  8720 1
 7330  8722  8721 1
 7331  8723  8721 1
 7332  8724  8721 1
 7333  8725  8724 1
 7334  8727  8726 1
 7335  8728  8727 1
 7336  8729  8727 1
 7337  8730  8727 1
 7338  8731  8730 1
 7339  8733  8732 1
 7340  8734  8733 1
 7341  8735  8733 1
 7342  8736  8733 1
 7343  8737  8736 1
 7344  8739  8738 1
 7345  8740  8739 1
 7346  8741  8739 1
 7347  8742  8739 1
 7348  8743  8742 1
 7349  8745  8744 1
 7350  8746  8745 1
 7351  8747  8745 1
 7352  8748  8745 1
 7353  8749  8748 1
 7354  8751  8750 1
 7355  8752  8751 1
 7356  8753  8751 1
 7357  8754  8751 1
 7358  8755  8754 1
 7359  8757  8756 1
 7360  8758  8757 1
 7361  8759  8757 1
 7362  8760  8757 1
 7363  8761  8760 1
 7364  8763  8762 1
 7365  8764  8763 1
 7366  8765  8763 1
 7367  8766  8763 1
 7368  8767  8766 1
 7369  8769  8768 1
 7370  8770  8769 1
 7371  8771  8769 1
 7372  8772  8769 1
 7373  8773  8772 1
 7374  8775  8774 1
 7375  8776  8775 1
 7376  8777  8775 1
 7377  8778  8775 1
 7378  8779  8778 1
 7379  8781  8780 1
 7380  8782  8781 1
 7381  8783  8781 1
 7382  8784  8781 1
 7383  8785  8784 1
 7384  8787  8786 1
 7385  8788  8787 1
 7386  8789  8787 1
 7387  8790  8787 1
 7388  8791  8790 1
 7389  8793  8792 1
 7390  8794  8793 1
 7391  8795  8793 1
 7392  8796  8793 1
 7393  8797  8796 1
 7394  8799  8798 1
 7395  8800  8799 1
 7396  8801  8799 1
 7397  8802  8799 1
 7398  8803  8802 1
 7399  8805  8804 1
 7400  8806  8805 1
 7401  8807  8805 1
 7402  8808  8805 1
 7403  8809  8808 1
 7404  8811  8810 1
 7405  8812  8811 1
 7406  8813  8811 1
 7407  8814  8811 1
 7408  8815  8814 1
 7409  8817  8816 1
 7410  8818  8817 1
 7411  8819  8817 1
 7412  8820  8817 1
 7413  8821  8820 1
 7414  8823  8822 1
 7415  8824  8823 1
 7416  8825  8823 1
 7417  8826  8823 1
 7418  8827  8826 1
 7419  8829  8828 1
 7420  8830  8829 1
 7421  8831  8829 1
 7422  8832  8829 1
 7423  8833  8832 1
 7424  8835  8834 1
 7425  8836  8835 1
 7426  8837  8835 1
 7427  8838  8835 1
 7428  8839  8838 1
 7429  8841  8840 1
 7430  8842  8841 1
 7431  8843  8841 1
 7432  8844  8841 1
 7433  8845  8844 1
 7434  8847  8846 1
 7435  8848  8847 1
 7436  8849  8847 1
 7437  8850  8847 1
 7438  8851  8850 1
 7439  8853  8852 1
 7440  8854  8853 1
 7441  8855  8853 1
 7442  8856  8853 1
 7443  8857  8856 1
 7444  8859  8858 1
 7445  8860  8859 1
 7446  8861  8859 1
 7447  8862  8859 1
 7448  8863  8862 1
 7449  8865  8864 1
 7450  8866  8865 1
 7451  8867  8865 1
 7452  8868  8865 1
 7453  8869  8868 1
 7454  8871  8870 1
 7455  8872  8871 1
 7456  8873  8871 1
 7457  8874  8871 1
 7458  8875  8874 1
 7459  8877  8876 1
 7460  8878  8877 1
 7461  8879  8877 1
 7462  8880  8877 1
 7463  8881  8880 1
 7464  8883  8882 1
 7465  8884  8883 1
 7466  8885  8883 1
 7467  8886  8883 1
 7468  8887  8886 1
 7469  8889  8888 1
 7470  8890  8889 1
 7471  8891  8889 1
 7472  8892  8889 1
 7473  8893  8892 1
 7474  8895  8894 1
 7475  8896  8895 1
 7476  8897  8895 1
 7477  8898  8895 1
 7478  8899  8898 1
 7479  8901  8900 1
 7480  8902  8901 1
 7481  8903  8901 1
 7482  8904  8901 1
 7483  8905  8904 1
 7484  8907  8906 1
 7485  8908  8907 1
 7486  8909  8907 1
 7487  8910  8907 1
 7488  8911  8910 1
 7489  8913  8912 1
 7490  8914  8913 1
 7491  8915  8913 1
 7492  8916  8913 1
 7493  8917  8916 1
 7494  8919  8918 1
 7495  8920  8919 1
 7496  8921  8919 1
 7497  8922  8919 1
 7498  8923  8922 1
 7499  8925  8924 1
 7500  8926  8925 1
 7501  8927  8925 1
 7502  8928  8925 1
 7503  8929  8928 1
 7504  8931  8930 1
 7505  8932  8931 1
 7506  8933  8931 1
 7507  8934  8931 1
 7508  8935  8934 1
 7509  8937  8936 1
 7510  8938  8937 1
 7511  8939  8937 1
 7512  8940  8937 1
 7513  8941  8940 1
 7514  8943  8942 1
 7515  8944  8943 1
 7516  8945  8943 1
 7517  8946  8943 1
 7518  8947  8946 1
 7519  8949  8948 1
 7520  8950  8949 1
 7521  8951  8949 1
 7522  8952  8949 1
 7523  8953  8952 1
 7524  8955  8954 1
 7525  8956  8955 1
 7526  8957  8955 1
 7527  8958  8955 1
 7528  8959  8958 1
 7529  8961  8960 1
 7530  8962  8961 1
 7531  8963  8961 1
 7532  8964  8961 1
 7533  8965  8964 1
 7534  8967  8966 1
 7535  8968  8967 1
 7536  8969  8967 1
 7537  8970  8967 1
 7538  8971  8970 1
 7539  8973  8972 1
 7540  8974  8973 1
 7541  8975  8973 1
 7542  8976  8973 1
 7543  8977  8976 1
 7544  8979  8978 1
 7545  8980  8979 1
 7546  8981  8979 1
 7547  8982  8979 1
 7548  8983  8982 1
 7549  8985  8984 1
 7550  8986  8985 1
 7551  8987  8985 1
 7552  8988  8985 1
 7553  8989  8988 1
 7554  8991  8990 1
 7555  8992  8991 1
 7556  8993  8991 1
 7557  8994  8991 1
 7558  8995  8994 1
 7559  8997  8996 1
 7560  8998  8997 1
 7561  8999  8997 1
 7562  9000  8997 1
 7563  9001  9000 1
 7564  9003  9002 1
 7565  9004  9003 1
 7566  9005  9003 1
 7567  9006  9003 1
 7568  9007  9006 1
 7569  9009  9008 1
 7570  9010  9009 1
 7571  9011  9009 1
 7572  9012  9009 1
 7573  9013  9012 1
 7574  9015  9014 1
 7575  9016  9015 1
 7576  9017  9015 1
 7577  9018  9015 1
 7578  9019  9018 1
 7579  9021  9020 1
 7580  9022  9021 1
 7581  9023  9021 1
 7582  9024  9021 1
 7583  9025  9024 1
 7584  9027  9026 1
 7585  9028  9027 1
 7586  9029  9027 1
 7587  9030  9027 1
 7588  9031  9030 1
 7589  9033  9032 1
 7590  9034  9033 1
 7591  9035  9033 1
 7592  9036  9033 1
 7593  9037  9036 1
 7594  9039  9038 1
 7595  9040  9039 1
 7596  9041  9039 1
 7597  9042  9039 1
 7598  9043  9042 1
 7599  9045  9044 1
 7600  9046  9045 1
 7601  9047  9045 1
 7602  9048  9045 1
 7603  9049  9048 1
 7604  9051  9050 1
 7605  9052  9051 1
 7606  9053  9051 1
 7607  9054  9051 1
 7608  9055  9054 1
 7609  9057  9056 1
 7610  9058  9057 1
 7611  9059  9057 1
 7612  9060  9057 1
 7613  9061  9060 1
 7614  9063  9062 1
 7615  9064  9063 1
 7616  9065  9063 1
 7617  9066  9063 1
 7618  9067  9066 1
 7619  9069  9068 1
 7620  9070  9069 1
 7621  9071  9069 1
 7622  9072  9069 1
 7623  9073  9072 1
 7624  9075  9074 1
 7625  9076  9075 1
 7626  9077  9075 1
 7627  9078  9075 1
 7628  9079  9078 1
 7629  9081  9080 1
 7630  9082  9081 1
 7631  9083  9081 1
 7632  9084  9081 1
 7633  9085  9084 1
 7634  9087  9086 1
 7635  9088  9087 1
 7636  9089  9087 1
 7637  9090  9087 1
 7638  9091  9090 1
 7639  9093  9092 1
 7640  9094  9093 1
 7641  9095  9093 1
 7642  9096  9093 1
 7643  9097  9096 1
 7644  9099  9098 1
 7645  9100  9099 1
 7646  9101  9099 1
 7647  9102  9099 1
 7648  9103  9102 1
 7649  9105  9104 1
 7650  9106  9105 1
 7651  9107  9105 1
 7652  9108  9105 1
 7653  9109  9108 1
 7654  9111  9110 1
 7655  9112  9111 1
 7656  9113  9111 1
 7657  9114  9111 1
 7658  9115  9114 1
 7659  9117  9116 1
 7660  9118  9117 1
 7661  9119  9117 1
 7662  9120  9117 1
 7663  9121  9120 1
 7664  9123  9122 1
 7665  9124  9123 1
 7666  9125  9123 1
 7667  9126  9123 1
 7668  9127  9126 1
 7669  9129  9128 1
 7670  9130  9129 1
 7671  9131  9129 1
 7672  9132  9129 1
 7673  9133  9132 1
 7674  9135  9134 1
 7675  9136  9135 1
 7676  9137  9135 1
 7677  9138  9135 1
 7678  9139  9138 1
 7679  9141  9140 1
 7680  9142  9141 1
 7681  9143  9141 1
 7682  9144  9141 1
 7683  9145  9144 1
 7684  9147  9146 1
 7685  9148  9147 1
 7686  9149  9147 1
 7687  9150  9147 1
 7688  9151  9150 1
 7689  9153  9152 1
 7690  9154  9153 1
 7691  9155  9153 1
 7692  9156  9153 1
 7693  9157  9156 1
 7694  9159  9158 1
 7695  9160  9159 1
 7696  9161  9159 1
 7697  9162  9159 1
 7698  9163  9162 1
 7699  9165  9164 1
 7700  9166  9165 1
 7701  9167  9165 1
 7702  9168  9165 1
 7703  9169  9168 1
 7704  9171  9170 1
 7705  9172  9171 1
 7706  9173  9171 1
 7707  9174  9171 1
 7708  9175  9174 1
 7709  9177  9176 1
 7710  9178  9177 1
 7711  9179  9177 1
 7712  9180  9177 1
 7713  9181  9180 1
 7714  9183  9182 1
 7715  9184  9183 1
 7716  9185  9183 1
 7717  9186  9183 1
 7718  9187  9186 1
 7719  9189  9188 1
 7720  9190  9189 1
 7721  9191  9189 1
 7722  9192  9189 1
 7723  9193  9192 1
 7724  9195  9194 1
 7725  9196  9195 1
 7726  9197  9195 1
 7727  9198  9195 1
 7728  9199  9198 1
 7729  9201  9200 1
 7730  9202  9201 1
 7731  9203  9201 1
 7732  9204  9201 1
 7733  9205  9204 1
 7734  9207  9206 1
 7735  9208  9207 1
 7736  9209  9207 1
 7737  9210  9207 1
 7738  9211  9210 1
 7739  9213  9212 1
 7740  9214  9213 1
 7741  9215  9213 1
 7742  9216  9213 1
 7743  9217  9216 1
 7744  9219  9218 1
 7745  9220  9219 1
 7746  9221  9219 1
 7747  9222  9219 1
 7748  9223  9222 1
 7749  9225  9224 1
 7750  9226  9225 1
 7751  9227  9225 1
 7752  9228  9225 1
 7753  9229  9228 1
 7754  9231  9230 1
 7755  9232  9231 1
 7756  9233  9231 1
 7757  9234  9231 1
 7758  9235  9234 1
 7759  9237  9236 1
 7760  9238  9237 1
 7761  9239  9237 1
 7762  9240  9237 1
 7763  9241  9240 1
 7764  9243  9242 1
 7765  9244  9243 1
 7766  9245  9243 1
 7767  9246  9243 1
 7768  9247  9246 1
 7769  9249  9248 1
 7770  9250  9249 1
 7771  9251  9249 1
 7772  9252  9249 1
 7773  9253  9252 1
 7774  9255  9254 1
 7775  9256  9255 1
 7776  9257  9255 1
 7777  9258  9255 1
 7778  9259  9258 1
 7779  9261  9260 1
 7780  9262  9261 1
 7781  9263  9261 1
 7782  9264  9261 1
 7783  9265  9264 1
 7784  9267  9266 1
 7785  9268  9267 1
 7786  9269  9267 1
 7787  9270  9267 1
 7788  9271  9270 1
 7789  9273  9272 1
 7790  9274  9273 1
 7791  9275  9273 1
 7792  9276  9273 1
 7793  9277  9276 1
 7794  9279  9278 1
 7795  9280  9279 1
 7796  9281  9279 1
 7797  9282  9279 1
 7798  9283  9282 1
 7799  9285  9284 1
 7800  9286  9285 1
 7801  9287  9285 1
 7802  9288  9285 1
 7803  9289  9288 1
 7804  9291  9290 1
 7805  9292  9291 1
 7806  9293  9291 1
 7807  9294  9291 1
 7808  9295  9294 1
 7809  9297  9296 1
 7810  9298  9297 1
 7811  9299  9297 1
 7812  9300  9297 1
 7813  9301  9300 1
 7814  9303  9302 1
 7815  9304  9303 1
 7816  9305  9303 1
 7817  9306  9303 1
 7818  9307  9306 1
 7819  9309  9308 1
 7820  9310  9309 1
 7821  9311  9309 1
 7822  9312  9309 1
 7823  9313  9312 1
 7824  9315  9314 1
 7825  9316  9315 1
 7826  9317  9315 1
 7827  9318  9315 1
 7828  9319  9318 1
 7829  9321  9320 1
 7830  9322  9321 1
 7831  9323  9321 1
 7832  9324  9321 1
 7833  9325  9324 1
 7834  9327  9326 1
 7835  9328  9327 1
 7836  9329  9327 1
 7837  9330  9327 1
 7838  9331  9330 1
 7839  9333  9332 1
 7840  9334  9333 1
 7841  9335  9333 1
 7842  9336  9333 1
 7843  9337  9336 1
 7844  9339  9338 1
 7845  9340  9339 1
 7846  9341  9339 1
 7847  9342  9339 1
 7848  9343  9342 1
 7849  9345  9344 1
 7850  9346  9345 1
 7851  9347  9345 1
 7852  9348  9345 1
 7853  9349  9348 1
 7854  9351  9350 1
 7855  9352  9351 1
 7856  9353  9351 1
 7857  9354  9351 1
 7858  9355  9354 1
 7859  9357  9356 1
 7860  9358  9357 1
 7861  9359  9357 1
 7862  9360  9357 1
 7863  9361  9360 1
 7864  9363  9362 1
 7865  9364  9363 1
 7866  9365  9363 1
 7867  9366  9363 1
 7868  9367  9366 1
 7869  9369  9368 1
 7870  9370  9369 1
 7871  9371  9369 1
 7872  9372  9369 1
 7873  9373  9372 1
 7874  9375  9374 1
 7875  9376  9375 1
 7876  9377  9375 1
 7877  9378  9375 1
 7878  9379  9378 1
 7879  9381  9380 1
 7880  9382  9381 1
 7881  9383  9381 1
 7882  9384  9381 1
 7883  9385  9384 1
 7884  9387  9386 1
 7885  9388  9387 1
 7886  9389  9387 1
 7887  9390  9387 1
 7888  9391  9390 1
 7889  9393  9392 1
 7890  9394  9393 1
 7891  9395  9393 1
 7892  9396  9393 1
 7893  9397  9396 1
 7894  9399  9398 1
 7895  9400  9399 1
 7896  9401  9399 1
 7897  9402  9399 1
 7898  9403  9402 1
 7899  9405  9404 1
 7900  9406  9405 1
 7901  9407  9405 1
 7902  9408  9405 1
 7903  9409  9408 1
 7904  9411  9410 1
 7905  9412  9411 1
 7906  9413  9411 1
 7907  9414  9411 1
 7908  9415  9414 1
 7909  9417  9416 1
 7910  9418  9417 1
 7911  9419  9417 1
 7912  9420  9417 1
 7913  9421  9420 1
 7914  9423  9422 1
 7915  9424  9423 1
 7916  9425  9423 1
 7917  9426  9423 1
 7918  9427  9426 1
 7919  9429  9428 1
 7920  9430  9429 1
 7921  9431  9429 1
 7922  9432  9429 1
 7923  9433  9432 1
 7924  9435  9434 1
 7925  9436  9435 1
 7926  9437  9435 1
 7927  9438  9435 1
 7928  9439  9438 1
 7929  9441  9440 1
 7930  9442  9441 1
 7931  9443  9441 1
 7932  9444  9441 1
 7933  9445  9444 1
 7934  9447  9446 1
 7935  9448  9447 1
 7936  9449  9447 1
 7937  9450  9447 1
 7938  9451  9450 1
 7939  9453  9452 1
 7940  9454  9453 1
 7941  9455  9453 1
 7942  9456  9453 1
 7943  9457  9456 1
 7944  9459  9458 1
 7945  9460  9459 1
 7946  9461  9459 1
 7947  9462  9459 1
 7948  9463  9462 1
 7949  9465  9464 1
 7950  9466  9465 1
 7951  9467  9465 1
 7952  9468  9465 1
 7953  9469  9468 1
 7954  9471  9470 1
 7955  9472  9471 1
 7956  9473  9471 1
 7957  9474  9471 1
 7958  9475  9474 1
 7959  9477  9476 1
 7960  9478  9477 1
 7961  9479  9477 1
 7962  9480  9477 1
 7963  9481  9480 1
 7964  9483  9482 1
 7965  9484  9483 1
 7966  9485  9483 1
 7967  9486  9483 1
 7968  9487  9486 1
 7969  9489  9488 1
 7970  9490  9489 1
 7971  9491  9489 1
 7972  9492  9489 1
 7973  9493  9492 1
 7974  9495  9494 1
 7975  9496  9495 1
 7976  9497  9495 1
 7977  9498  9495 1
 7978  9499  9498 1
 7979  9501  9500 1
 7980  9502  9501 1
 7981  9503  9501 1
 7982  9504  9501 1
 7983  9505  9504 1
 7984  9507  9506 1
 7985  9508  9507 1
 7986  9509  9507 1
 7987  9510  9507 1
 7988  9511  9510 1
 7989  9513  9512 1
 7990  9514  9513 1
 7991  9515  9513 1
 7992  9516  9513 1
 7993  9517  9516 1
 7994  9519  9518 1
 7995  9520  9519 1
 7996  9521  9519 1
 7997  9522  9519 1
 7998  9523  9522 1
 7999  9525  9524 1
 8000  9526  9525 1
 8001  9527  9525 1
 8002  9528  9525 1
 8003  9529  9528 1
 8004  9531  9530 1
 8005  9532  9531 1
 8006  9533  9531 1
 8007  9534  9531 1
 8008  9535  9534 1
 8009  9537  9536 1
 8010  9538  9537 1
 8011  9539  9537 1
 8012  9540  9537 1
 8013  9541  9540 1
 8014  9543  9542 1
 8015  9544  9543 1
 8016  9545  9543 1
 8017  9546  9543 1
 8018  9547  9546 1
 8019  9549  9548 1
 8020  9550  9549 1
 8021  9551  9549 1
 8022  9552  9549 1
 8023  9553  9552 1
 8024  9555  9554 1
 8025  9556  9555 1
 8026  9557  9555 1
 8027  9558  9555 1
 8028  9559  9558 1
 8029  9561  9560 1
 8030  9562  9561 1
 8031  9563  9561 1
 8032  9564  9561 1
 8033  9565  9564 1
 8034  9567  9566 1
 8035  9568  9567 1
 8036  9569  9567 1
 8037  9570  9567 1
 8038  9571  9570 1
 8039  9573  9572 1
 8040  9574  9573 1
 8041  9575  9573 1
 8042  9576  9573 1
 8043  9577  9576 1
 8044  9579  9578 1
 8045  9580  9579 1
 8046  9581  9579 1
 8047  9582  9579 1
 8048  9583  9582 1
 8049  9585  9584 1
 8050  9586  9585 1
 8051  9587  9585 1
 8052  9588  9585 1
 8053  9589  9588 1
 8054  9591  9590 1
 8055  9592  9591 1
 8056  9593  9591 1
 8057  9594  9591 1
 8058  9595  9594 1
 8059  9597  9596 1
 8060  9598  9597 1
 8061  9599  9597 1
 8062  9600  9597 1
 8063  9601  9600 1
 8064  9603  9602 1
 8065  9604  9603 1
 8066  9605  9603 1
 8067  9606  9603 1
 8068  9607  9606 1
 8069  9609  9608 1
 8070  9610  9609 1
 8071  9611  9609 1
 8072  9612  9609 1
 8073  9613  9612 1
 8074  9615  9614 1
 8075  9616  9615 1
 8076  9617  9615 1
 8077  9618  9615 1
 8078  9619  9618 1
 8079  9621  9620 1
 8080  9622  9621 1
 8081  9623  9621 1
 8082  9624  9621 1
 8083  9625  9624 1
 8084  9627  9626 1
 8085  9628  9627 1
 8086  9629  9627 1
 8087  9630  9627 1
 8088  9631  9630 1
 8089  9633  9632 1
 8090  9634  9633 1
 8091  9635  9633 1
 8092  9636  9633 1
 8093  9637  9636 1
 8094  9639  9638 1
 8095  9640  9639 1
 8096  9641  9639 1
 8097  9642  9639 1
 8098  9643  9642 1
 8099  9645  9644 1
 8100  9646  9645 1
 8101  9647  9645 1
 8102  9648  9645 1
 8103  9649  9648 1
 8104  9651  9650 1
 8105  9652  9651 1
 8106  9653  9651 1
 8107  9654  9651 1
 8108  9655  9654 1
 8109  9657  9656 1
 8110  9658  9657 1
 8111  9659  9657 1
 8112  9660  9657 1
 8113  9661  9660 1
 8114  9663  9662 1
 8115  9664  9663 1
 8116  9665  9663 1
 8117  9666  9663 1
 8118  9667  9666 1
 8119  9669  9668 1
 8120  9670  9669 1
 8121  9671  9669 1
 8122  9672  9669 1
 8123  9673  9672 1
 8124  9675  9674 1
 8125  9676  9675 1
 8126  9677  9675 1
 8127  9678  9675 1
 8128  9679  9678 1
 8129  9681  9680 1
 8130  9682  9681 1
 8131  9683  9681 1
 8132  9684  9681 1
 8133  9685  9684 1
 8134  9687  9686 1
 8135  9688  9687 1
 8136  9689  9687 1
 8137  9690  9687 1
 8138  9691  9690 1
 8139  9693  9692 1
 8140  9694  9693 1
 8141  9695  9693 1
 8142  9696  9693 1
 8143  9697  9696 1
 8144  9699  9698 1
 8145  9700  9699 1
 8146  9701  9699 1
 8147  9702  9699 1
 8148  9703  9702 1
 8149  9705  9704 1
 8150  9706  9705 1
 8151  9707  9705 1
 8152  9708  9705 1
 8153  9709  9708 1
 8154  9711  9710 1
 8155  9712  9711 1
 8156  9713  9711 1
 8157  9714  9711 1
 8158  9715  9714 1
 8159  9717  9716 1
 8160  9718  9717 1
 8161  9719  9717 1
 8162  9720  9717 1
 8163  9721  9720 1
 8164  9723  9722 1
 8165  9724  9723 1
 8166  9725  9723 1
 8167  9726  9723 1
 8168  9727  9726 1
 8169  9729  9728 1
 8170  9730  9729 1
 8171  9731  9729 1
 8172  9732  9729 1
 8173  9733  9732 1
 8174  9735  9734 1
 8175  9736  9735 1
 8176  9737  9735 1
 8177  9738  9735 1
 8178  9739  9738 1
 8179  9741  9740 1
 8180  9742  9741 1
 8181  9743  9741 1
 8182  9744  9741 1
 8183  9745  9744 1
 8184  9747  9746 1
 8185  9748  9747 1
 8186  9749  9747 1
 8187  9750  9747 1
 8188  9751  9750 1
 8189  9753  9752 1
 8190  9754  9753 1
 8191  9755  9753 1
 8192  9756  9753 1
 8193  9757  9756 1
 8194  9759  9758 1
 8195  9760  9759 1
 8196  9761  9759 1
 8197  9762  9759 1
 8198  9763  9762 1
 8199  9765  9764 1
 8200  9766  9765 1
 8201  9767  9765 1
 8202  9768  9765 1
 8203  9769  9768 1
 8204  9771  9770 1
 8205  9772  9771 1
 8206  9773  9771 1
 8207  9774  9771 1
 8208  9775  9774 1
 8209  9777  9776 1
 8210  9778  9777 1
 8211  9779  9777 1
 8212  9780  9777 1
 8213  9781  9780 1
 8214  9783  9782 1
 8215  9784  9783 1
 8216  9785  9783 1
 8217  9786  9783 1
 8218  9787  9786 1
 8219  9789  9788 1
 8220  9790  9789 1
 8221  9791  9789 1
 8222  9792  9789 1
 8223  9793  9792 1
 8224  9795  9794 1
 8225  9796  9795 1
 8226  9797  9795 1
 8227  9798  9795 1
 8228  9799  9798 1
 8229  9801  9800 1
 8230  9802  9801 1
 8231  9803  9801 1
 8232  9804  9801 1
 8233  9805  9804 1
 8234  9807  9806 1
 8235  9808  9807 1
 8236  9809  9807 1
 8237  9810  9807 1
 8238  9811  9810 1
 8239  9813  9812 1
 8240  9814  9813 1
 8241  9815  9813 1
 8242  9816  9813 1
 8243  9817  9816 1
 8244  9819  9818 1
 8245  9820  9819 1
 8246  9821  9819 1
 8247  9822  9819 1
 8248  9823  9822 1
 8249  9825  9824 1
 8250  9826  9825 1
 8251  9827  9825 1
 8252  9828  9825 1
 8253  9829  9828 1
 8254  9831  9830 1
 8255  9832  9831 1
 8256  9833  9831 1
 8257  9834  9831 1
 8258  9835  9834 1
 8259  9837  9836 1
 8260  9838  9837 1
 8261  9839  9837 1
 8262  9840  9837 1
 8263  9841  9840 1
 8264  9843  9842 1
 8265  9844  9843 1
 8266  9845  9843 1
 8267  9846  9843 1
 8268  9847  9846 1
 8269  9849  9848 1
 8270  9850  9849 1
 8271  9851  9849 1
 8272  9852  9849 1
 8273  9853  9852 1
 8274  9855  9854 1
 8275  9856  9855 1
 8276  9857  9855 1
 8277  9858  9855 1
 8278  9859  9858 1
 8279  9861  9860 1
 8280  9862  9861 1
 8281  9863  9861 1
 8282  9864  9861 1
 8283  9865  9864 1
 8284  9867  9866 1
 8285  9868  9867 1
 8286  9869  9867 1
 8287  9870  9867 1
 8288  9871  9870 1
 8289  9873  9872 1
 8290  9874  9873 1
 8291  9875  9873 1
 8292  9876  9873 1
 8293  9877  9876 1
 8294  9879  9878 1
 8295  9880  9879 1
 8296  9881  9879 1
 8297  9882  9879 1
 8298  9883  9882 1
 8299  9885  9884 1
 8300  9886  9885 1
 8301  9887  9885 1
 8302  9888  9885 1
 8303  9889  9888 1
 8304  9891  9890 1
 8305  9892  9891 1
 8306  9893  9891 1
 8307  9894  9891 1
 8308  9895  9894 1
 8309  9897  9896 1
 8310  9898  9897 1
 8311  9899  9897 1
 8312  9900  9897 1
 8313  9901  9900 1
 8314  9903  9902 1
 8315  9904  9903 1
 8316  9905  9903 1
 8317  9906  9903 1
 8318  9907  9906 1
 8319  9909  9908 1
 8320  9910  9909 1
 8321  9911  9909 1
 8322  9912  9909 1
 8323  9913  9912 1
 8324  9915  9914 1
 8325  9916  9915 1
 8326  9917  9915 1
 8327  9918  9915 1
 8328  9919  9918 1
 8329  9921  9920 1
 8330  9922  9921 1
 8331  9923  9921 1
 8332  9924  9921 1
 8333  9925  9924 1
 8334  9927  9926 1
 8335  9928  9927 1
 8336  9929  9927 1
 8337  9930  9927 1
 8338  9931  9930 1
 8339  9933  9932 1
 8340  9934  9933 1
 8341  9935  9933 1
 8342  9936  9933 1
 8343  9937  9936 1
 8344  9939  9938 1
 8345  9940  9939 1
 8346  9941  9939 1
 8347  9942  9939 1
 8348  9943  9942 1
 8349  9945  9944 1
 8350  9946  9945 1
 8351  9947  9945 1
 8352  9948  9945 1
 8353  9949  9948 1
 8354  9951  9950 1
 8355  9952  9951 1
 8356  9953  9951 1
 8357  9954  9951 1
 8358  9955  9954 1
 8359  9957  9956 1
 8360  9958  9957 1
 8361  9959  9957 1
 8362  9960  9957 1
 8363  9961  9960 1
 8364  9963  9962 1
 8365  9964  9963 1
 8366  9965  9963 1
 8367  9966  9963 1
 8368  9967  9966 1
 8369  9969  9968 1
 8370  9970  9969 1
 8371  9971  9969 1
 8372  9972  9969 1
 8373  9973  9972 1
 8374  9975  9974 1
 8375  9976  9975 1
 8376  9977  9975 1
 8377  9978  9975 1
 8378  9979  9978 1
 8379  9981  9980 1
 8380  9982  9981 1
 8381  9983  9981 1
 8382  9984  9981 1
 8383  9985  9984 1
 8384  9987  9986 1
 8385  9988  9987 1
 8386  9989  9987 1
 8387  9990  9987 1
 8388  9991  9990 1
 8389  9993  9992 1
 8390  9994  9993 1
 8391  9995  9993 1
 8392  9996  9993 1
 8393  9997  9996 1
 8394  9999  9998 1
 8395 10000  9999 1
 8396 10001  9999 1
 8397 10002  9999 1
 8398 10003 10002 1
 8399 10005 10004 1
 8400 10006 10005 1
 8401 10007 10005 1
 8402 10008 10005 1
 8403 10009 10008 1
 8404 10011 10010 1
 8405 10012 10011 1
 8406 10013 10011 1
 8407 10014 10011 1
 8408 10015 10014 1
 8409 10017 10016 1
 8410 10018 10017 1
 8411 10019 10017 1
 8412 10020 10017 1
 8413 10021 10020 1
 8414 10023 10022 1
 8415 10024 10023 1
 8416 10025 10023 1
 8417 10026 10023 1
 8418 10027 10026 1
 8419 10029 10028 1
 8420 10030 10029 1
 8421 10031 10029 1
 8422 10032 10029 1
 8423 10033 10032 1
 8424 10035 10034 1
 8425 10036 10035 1
 8426 10037 10035 1
 8427 10038 10035 1
 8428 10039 10038 1
 8429 10041 10040 1
 8430 10042 10041 1
 8431 10043 10041 1
 8432 10044 10041 1
 8433 10045 10044 1
 8434 10047 10046 1
 8435 10048 10047 1
 8436 10049 10047 1
 8437 10050 10047 1
 8438 10051 10050 1
 8439 10053 10052 1
 8440 10054 10053 1
 8441 10055 10053 1
 8442 10056 10053 1
 8443 10057 10056 1
 8444 10059 10058 1
 8445 10060 10059 1
 8446 10061 10059 1
 8447 10062 10059 1
 8448 10063 10062 1
 8449 10065 10064 1
 8450 10066 10065 1
 8451 10067 10065 1
 8452 10068 10065 1
 8453 10069 10068 1
 8454 10071 10070 1
 8455 10072 10071 1
 8456 10073 10071 1
 8457 10074 10071 1
 8458 10075 10074 1
 8459 10077 10076 1
 8460 10078 10077 1
 8461 10079 10077 1
 8462 10080 10077 1
 8463 10081 10080 1
 8464 10083 10082 1
 8465 10084 10083 1
 8466 10085 10083 1
 8467 10086 10083 1
 8468 10087 10086 1
 8469 10089 10088 1
 8470 10090 10089 1
 8471 10091 10089 1
 8472 10092 10089 1
 8473 10093 10092 1
 8474 10095 10094 1
 8475 10096 10095 1
 8476 10097 10095 1
 8477 10098 10095 1
 8478 10099 10098 1
 8479 10101 10100 1
 8480 10102 10101 1
 8481 10103 10101 1
 8482 10104 10101 1
 8483 10105 10104 1
 8484 10107 10106 1
 8485 10108 10107 1
 8486 10109 10107 1
 8487 10110 10107 1
 8488 10111 10110 1
 8489 10113 10112 1
 8490 10114 10113 1
 8491 10115 10113 1
 8492 10116 10113 1
 8493 10117 10116 1
 8494 10119 10118 1
 8495 10120 10119 1
 8496 10121 10119 1
 8497 10122 10119 1
 8498 10123 10122 1
 8499 10125 10124 1
 8500 10126 10125 1
 8501 10127 10125 1
 8502 10128 10125 1
 8503 10129 10128 1
 8504 10131 10130 1
 8505 10132 10131 1
 8506 10133 10131 1
 8507 10134 10131 1
 8508 10135 10134 1
 8509 10137 10136 1
 8510 10138 10137 1
 8511 10139 10137 1
 8512 10140 10137 1
 8513 10141 10140 1
 8514 10143 10142 1
 8515 10144 10143 1
 8516 10145 10143 1
 8517 10146 10143 1
 8518 10147 10146 1
 8519 10149 10148 1
 8520 10150 10149 1
 8521 10151 10149 1
 8522 10152 10149 1
 8523 10153 10152 1
 8524 10155 10154 1
 8525 10156 10155 1
 8526 10157 10155 1
 8527 10158 10155 1
 8528 10159 10158 1
 8529 10161 10160 1
 8530 10162 10161 1
 8531 10163 10161 1
 8532 10164 10161 1
 8533 10165 10164 1
 8534 10167 10166 1
 8535 10168 10167 1
 8536 10169 10167 1
 8537 10170 10167 1
 8538 10171 10170 1
 8539 10173 10172 1
 8540 10174 10173 1
 8541 10175 10173 1
 8542 10176 10173 1
 8543 10177 10176 1
 8544 10179 10178 1
 8545 10180 10179 1
 8546 10181 10179 1
 8547 10182 10179 1
 8548 10183 10182 1
 8549 10185 10184 1
 8550 10186 10185 1
 8551 10187 10185 1
 8552 10188 10185 1
 8553 10189 10188 1
 8554 10191 10190 1
 8555 10192 10191 1
 8556 10193 10191 1
 8557 10194 10191 1
 8558 10195 10194 1
 8559 10197 10196 1
 8560 10198 10197 1
 8561 10199 10197 1
 8562 10200 10197 1
 8563 10201 10200 1
 8564 10203 10202 1
 8565 10204 10203 1
 8566 10205 10203 1
 8567 10206 10203 1
 8568 10207 10206 1
 8569 10209 10208 1
 8570 10210 10209 1
 8571 10211 10209 1
 8572 10212 10209 1
 8573 10213 10212 1
 8574 10215 10214 1
 8575 10216 10215 1
 8576 10217 10215 1
 8577 10218 10215 1
 8578 10219 10218 1
 8579 10221 10220 1
 8580 10222 10221 1
 8581 10223 10221 1
 8582 10224 10221 1
 8583 10225 10224 1
 8584 10227 10226 1
 8585 10228 10227 1
 8586 10229 10227 1
 8587 10230 10227 1
 8588 10231 10230 1
 8589 10233 10232 1
 8590 10234 10233 1
 8591 10235 10233 1
 8592 10236 10233 1
 8593 10237 10236 1
 8594 10239 10238 1
 8595 10240 10239 1
 8596 10241 10239 1
 8597 10242 10239 1
 8598 10243 10242 1
 8599 10245 10244 1
 8600 10246 10245 1
 8601 10247 10245 1
 8602 10248 10245 1
 8603 10249 10248 1
 8604 10251 10250 1
 8605 10252 10251 1
 8606 10253 10251 1
 8607 10254 10251 1
 8608 10255 10254 1
 8609 10257 10256 1
 8610 10258 10257 1
 8611 10259 10257 1
 8612 10260 10257 1
 8613 10261 10260 1
 8614 10263 10262 1
 8615 10264 10263 1
 8616 10265 10263 1
 8617 10266 10263 1
 8618 10267 10266 1
 8619 10269 10268 1
 8620 10270 10269 1
 8621 10271 10269 1
 8622 10272 10269 1
 8623 10273 10272 1
 8624 10275 10274 1
 8625 10276 10275 1
 8626 10277 10275 1
 8627 10278 10275 1
 8628 10279 10278 1
 8629 10281 10280 1
 8630 10282 10281 1
 8631 10283 10281 1
 8632 10284 10281 1
 8633 10285 10284 1
 8634 10287 10286 1
 8635 10288 10287 1
 8636 10289 10287 1
 8637 10290 10287 1
 8638 10291 10290 1
 8639 10293 10292 1
 8640 10294 10293 1
 8641 10295 10293 1
 8642 10296 10293 1
 8643 10297 10296 1
 8644 10299 10298 1
 8645 10300 10299 1
 8646 10301 10299 1
 8647 10302 10299 1
 8648 10303 10302 1
 8649 10305 10304 1
 8650 10306 10305 1
 8651 10307 10305 1
 8652 10308 10305 1
 8653 10309 10308 1
 8654 10311 10310 1
 8655 10312 10311 1
 8656 10313 10311 1
 8657 10314 10311 1
 8658 10315 10314 1
 8659 10317 10316 1
 8660 10318 10317 1
 8661 10319 10317 1
 8662 10320 10317 1
 8663 10321 10320 1
 8664 10323 10322 1
 8665 10324 10323 1
 8666 10325 10323 1
 8667 10326 10323 1
 8668 10327 10326 1
 8669 10329 10328 1
 8670 10330 10329 1
 8671 10331 10329 1
 8672 10332 10329 1
 8673 10333 10332 1
 8674 10335 10334 1
 8675 10336 10335 1
 8676 10337 10335 1
 8677 10338 10335 1
 8678 10339 10338 1
 8679 10341 10340 1
 8680 10342 10341 1
 8681 10343 10341 1
 8682 10344 10341 1
 8683 10345 10344 1
 8684 10347 10346 1
 8685 10348 10347 1
 8686 10349 10347 1
 8687 10350 10347 1
 8688 10351 10350 1
 8689 10353 10352 1
 8690 10354 10353 1
 8691 10355 10353 1
 8692 10356 10353 1
 8693 10357 10356 1
 8694 10359 10358 1
 8695 10360 10359 1
 8696 10361 10359 1
 8697 10362 10359 1
 8698 10363 10362 1
 8699 10365 10364 1
 8700 10366 10365 1
 8701 10367 10365 1
 8702 10368 10365 1
 8703 10369 10368 1
 8704 10371 10370 1
 8705 10372 10371 1
 8706 10373 10371 1
 8707 10374 10371 1
 8708 10375 10374 1
 8709 10377 10376 1
 8710 10378 10377 1
 8711 10379 10377 1
 8712 10380 10377 1
 8713 10381 10380 1
 8714 10383 10382 1
 8715 10384 10383 1
 8716 10385 10383 1
 8717 10386 10383 1
 8718 10387 10386 1
 8719 10389 10388 1
 8720 10390 10389 1
 8721 10391 10389 1
 8722 10392 10389 1
 8723 10393 10392 1
 8724 10395 10394 1
 8725 10396 10395 1
 8726 10397 10395 1
 8727 10398 10395 1
 8728 10399 10398 1
 8729 10401 10400 1
 8730 10402 10401 1
 8731 10403 10401 1
 8732 10404 10401 1
 8733 10405 10404 1
 8734 10407 10406 1
 8735 10408 10407 1
 8736 10409 10407 1
 8737 10410 10407 1
 8738 10411 10410 1
 8739 10413 10412 1
 8740 10414 10413 1
 8741 10415 10413 1
 8742 10416 10413 1
 8743 10417 10416 1
 8744 10419 10418 1
 8745 10420 10419 1
 8746 10421 10419 1
 8747 10422 10419 1
 8748 10423 10422 1
 8749 10425 10424 1
 8750 10426 10425 1
 8751 10427 10425 1
 8752 10428 10425 1
 8753 10429 10428 1
 8754 10431 10430 1
 8755 10432 10431 1
 8756 10433 10431 1
 8757 10434 10431 1
 8758 10435 10434 1
 8759 10437 10436 1
 8760 10438 10437 1
 8761 10439 10437 1
 8762 10440 10437 1
 8763 10441 10440 1
 8764 10443 10442 1
 8765 10444 10443 1
 8766 10445 10443 1
 8767 10446 10443 1
 8768 10447 10446 1
 8769 10449 10448 1
 8770 10450 10449 1
 8771 10451 10449 1
 8772 10452 10449 1
 8773 10453 10452 1
 8774 10455 10454 1
 8775 10456 10455 1
 8776 10457 10455 1
 8777 10458 10455 1
 8778 10459 10458 1
 8779 10461 10460 1
 8780 10462 10461 1
 8781 10463 10461 1
 8782 10464 10461 1
 8783 10465 10464 1
 8784 10467 10466 1
 8785 10468 10467 1
 8786 10469 10467 1
 8787 10470 10467 1
 8788 10471 10470 1
 8789 10473 10472 1
 8790 10474 10473 1
 8791 10475 10473 1
 8792 10476 10473 1
 8793 10477 10476 1
 8794 10479 10478 1
 8795 10480 10479 1
 8796 10481 10479 1
 8797 10482 10479 1
 8798 10483 10482 1
 8799 10485 10484 1
 8800 10486 10485 1
 8801 10487 10485 1
 8802 10488 10485 1
 8803 10489 10488 1
 8804 10491 10490 1
 8805 10492 10491 1
 8806 10493 10491 1
 8807 10494 10491 1
 8808 10495 10494 1
 8809 10497 10496 1
 8810 10498 10497 1
 8811 10499 10497 1
 8812 10500 10497 1
 8813 10501 10500 1
 8814 10503 10502 1
 8815 10504 10503 1
 8816 10505 10503 1
 8817 10506 10503 1
 8818 10507 10506 1
 8819 10509 10508 1
 8820 10510 10509 1
 8821 10511 10509 1
 8822 10512 10509 1
 8823 10513 10512 1
 8824 10515 10514 1
 8825 10516 10515 1
 8826 10517 10515 1
 8827 10518 10515 1
 8828 10519 10518 1
 8829 10521 10520 1
 8830 10522 10521 1
 8831 10523 10521 1
 8832 10524 10521 1
 8833 10525 10524 1
 8834 10527 10526 1
 8835 10528 10527 1
 8836 10529 10527 1
 8837 10530 10527 1
 8838 10531 10530 1
 8839 10533 10532 1
 8840 10534 10533 1
 8841 10535 10533 1
 8842 10536 10533 1
 8843 10537 10536 1
 8844 10539 10538 1
 8845 10540 10539 1
 8846 10541 10539 1
 8847 10542 10539 1
 8848 10543 10542 1
 8849 10545 10544 1
 8850 10546 10545 1
 8851 10547 10545 1
 8852 10548 10545 1
 8853 10549 10548 1
 8854 10551 10550 1
 8855 10552 10551 1
 8856 10553 10551 1
 8857 10554 10551 1
 8858 10555 10554 1
 8859 10557 10556 1
 8860 10558 10557 1
 8861 10559 10557 1
 8862 10560 10557 1
 8863 10561 10560 1
 8864 10563 10562 1
 8865 10564 10563 1
 8866 10565 10563 1
 8867 10566 10563 1
 8868 10567 10566 1
 8869 10569 10568 1
 8870 10570 10569 1
 8871 10571 10569 1
 8872 10572 10569 1
 8873 10573 10572 1
 8874 10575 10574 1
 8875 10576 10575 1
 8876 10577 10575 1
 8877 10578 10575 1
 8878 10579 10578 1
 8879 10581 10580 1
 8880 10582 10581 1
 8881 10583 10581 1
 8882 10584 10581 1
 8883 10585 10584 1
 8884 10587 10586 1
 8885 10588 10587 1
 8886 10589 10587 1
 8887 10590 10587 1
 8888 10591 10590 1
 8889 10593 10592 1
 8890 10594 10593 1
 8891 10595 10593 1
 8892 10596 10593 1
 8893 10597 10596 1
 8894 10599 10598 1
 8895 10600 10599 1
 8896 10601 10599 1
 8897 10602 10599 1
 8898 10603 10602 1
 8899 10605 10604 1
 8900 10606 10605 1
 8901 10607 10605 1
 8902 10608 10605 1
 8903 10609 10608 1
 8904 10611 10610 1
 8905 10612 10611 1
 8906 10613 10611 1
 8907 10614 10611 1
 8908 10615 10614 1
 8909 10617 10616 1
 8910 10618 10617 1
 8911 10619 10617 1
 8912 10620 10617 1
 8913 10621 10620 1
 8914 10623 10622 1
 8915 10624 10623 1
 8916 10625 10623 1
 8917 10626 10623 1
 8918 10627 10626 1
 8919 10629 10628 1
 8920 10630 10629 1
 8921 10631 10629 1
 8922 10632 10629 1
 8923 10633 10632 1
 8924 10635 10634 1
 8925 10636 10635 1
 8926 10637 10635 1
 8927 10638 10635 1
 8928 10639 10638 1
 8929 10641 10640 1
 8930 10642 10641 1
 8931 10643 10641 1
 8932 10644 10641 1
 8933 10645 10644 1
 8934 10647 10646 1
 8935 10648 10647 1
 8936 10649 10647 1
 8937 10650 10647 1
 8938 10651 10650 1
 8939 10653 10652 1
 8940 10654 10653 1
 8941 10655 10653 1
 8942 10656 10653 1
 8943 10657 10656 1
 8944 10659 10658 1
 8945 10660 10659 1
 8946 10661 10659 1
 8947 10662 10659 1
 8948 10663 10662 1
 8949 10665 10664 1
 8950 10666 10665 1
 8951 10667 10665 1
 8952 10668 10665 1
 8953 10669 10668 1
 8954 10671 10670 1
 8955 10672 10671 1
 8956 10673 10671 1
 8957 10674 10671 1
 8958 10675 10674 1
 8959 10677 10676 1
 8960 10678 10677 1
 8961 10679 10677 1
 8962 10680 10677 1
 8963 10681 10680 1
 8964 10683 10682 1
 8965 10684 10683 1
 8966 10685 10683 1
 8967 10686 10683 1
 8968 10687 10686 1
 8969 10689 10688 1
 8970 10690 10689 1
 8971 10691 10689 1
 8972 10692 10689 1
 8973 10693 10692 1
 8974 10695 10694 1
 8975 10696 10695 1
 8976 10697 10695 1
 8977 10698 10695 1
 8978 10699 10698 1
 8979 10701 10700 1
 8980 10702 10701 1
 8981 10703 10701 1
 8982 10704 10701 1
 8983 10705 10704 1
 8984 10707 10706 1
 8985 10708 10707 1
 8986 10709 10707 1
 8987 10710 10707 1
 8988 10711 10710 1
 8989 10713 10712 1
 8990 10714 10713 1
 8991 10715 10713 1
 8992 10716 10713 1
 8993 10717 10716 1
 8994 10719 10718 1
 8995 10720 10719 1
 8996 10721 10719 1
 8997 10722 10719 1
 8998 10723 10722 1
 8999 10725 10724 1
 9000 10726 10725 1
 9001 10727 10725 1
 9002 10728 10725 1
 9003 10729 10728 1
 9004 10731 10730 1
 9005 10732 10731 1
 9006 10733 10731 1
 9007 10734 10731 1
 9008 10735 10734 1
 9009 10737 10736 1
 9010 10738 10737 1
 9011 10739 10737 1
 9012 10740 10737 1
 9013 10741 10740 1
 9014 10743 10742 1
 9015 10744 10743 1
 9016 10745 10743 1
 9017 10746 10743 1
 9018 10747 10746 1
 9019 10749 10748 1
 9020 10750 10749 1
 9021 10751 10749 1
 9022 10752 10749 1
 9023 10753 10752 1
 9024 10755 10754 1
 9025 10756 10755 1
 9026 10757 10755 1
 9027 10758 10755 1
 9028 10759 10758 1
 9029 10761 10760 1
 9030 10762 10761 1
 9031 10763 10761 1
 9032 10764 10761 1
 9033 10765 10764 1
 9034 10767 10766 1
 9035 10768 10767 1
 9036 10769 10767 1
 9037 10770 10767 1
 9038 10771 10770 1
 9039 10773 10772 1
 9040 10774 10773 1
 9041 10775 10773 1
 9042 10776 10773 1
 9043 10777 10776 1
 9044 10779 10778 1
 9045 10780 10779 1
 9046 10781 10779 1
 9047 10782 10779 1
 9048 10783 10782 1
 9049 10785 10784 1
 9050 10786 10785 1
 9051 10787 10785 1
 9052 10788 10785 1
 9053 10789 10788 1
 9054 10791 10790 1
 9055 10792 10791 1
 9056 10793 10791 1
 9057 10794 10791 1
 9058 10795 10794 1
 9059 10797 10796 1
 9060 10798 10797 1
 9061 10799 10797 1
 9062 10800 10797 1
 9063 10801 10800 1
 9064 10803 10802 1
 9065 10804 10803 1
 9066 10805 10803 1
 9067 10806 10803 1
 9068 10807 10806 1
 9069 10809 10808 1
 9070 10810 10809 1
 9071 10811 10809 1
 9072 10812 10809 1
 9073 10813 10812 1
 9074 10815 10814 1
 9075 10816 10815 1
 9076 10817 10815 1
 9077 10818 10815 1
 9078 10819 10818 1
 9079 10821 10820 1
 9080 10822 10821 1
 9081 10823 10821 1
 9082 10824 10821 1
 9083 10825 10824 1
 9084 10827 10826 1
 9085 10828 10827 1
 9086 10829 10827 1
 9087 10830 10827 1
 9088 10831 10830 1
 9089 10833 10832 1
 9090 10834 10833 1
 9091 10835 10833 1
 9092 10836 10833 1
 9093 10837 10836 1
 9094 10839 10838 1
 9095 10840 10839 1
 9096 10841 10839 1
 9097 10842 10839 1
 9098 10843 10842 1
 9099 10845 10844 1
 9100 10846 10845 1
 9101 10847 10845 1
 9102 10848 10845 1
 9103 10849 10848 1
 9104 10851 10850 1
 9105 10852 10851 1
 9106 10853 10851 1
 9107 10854 10851 1
 9108 10855 10854 1
 9109 10857 10856 1
 9110 10858 10857 1
 9111 10859 10857 1
 9112 10860 10857 1
 9113 10861 10860 1
 9114 10863 10862 1
 9115 10864 10863 1
 9116 10865 10863 1
 9117 10866 10863 1
 9118 10867 10866 1
 9119 10869 10868 1
 9120 10870 10869 1
 9121 10871 10869 1
 9122 10872 10869 1
 9123 10873 10872 1
 9124 10875 10874 1
 9125 10876 10875 1
 9126 10877 10875 1
 9127 10878 10875 1
 9128 10879 10878 1
 9129 10881 10880 1
 9130 10882 10881 1
 9131 10883 10881 1
 9132 10884 10881 1
 9133 10885 10884 1
 9134 10887 10886 1
 9135 10888 10887 1
 9136 10889 10887 1
 9137 10890 10887 1
 9138 10891 10890 1
 9139 10893 10892 1
 9140 10894 10893 1
 9141 10895 10893 1
 9142 10896 10893 1
 9143 10897 10896 1
 9144 10899 10898 1
 9145 10900 10899 1
 9146 10901 10899 1
 9147 10902 10899 1
 9148 10903 10902 1
 9149 10905 10904 1
 9150 10906 10905 1
 9151 10907 10905 1
 9152 10908 10905 1
 9153 10909 10908 1
 9154 10911 10910 1
 9155 10912 10911 1
 9156 10913 10911 1
 9157 10914 10911 1
 9158 10915 10914 1
 9159 10917 10916 1
 9160 10918 10917 1
 9161 10919 10917 1
 9162 10920 10917 1
 9163 10921 10920 1
 9164 10923 10922 1
 9165 10924 10923 1
 9166 10925 10923 1
 9167 10926 10923 1
 9168 10927 10926 1
 9169 10929 10928 1
 9170 10930 10929 1
 9171 10931 10929 1
 9172 10932 10929 1
 9173 10933 10932 1
 9174 10935 10934 1
 9175 10936 10935 1
 9176 10937 10935 1
 9177 10938 10935 1
 9178 10939 10938 1
 9179 10941 10940 1
 9180 10942 10941 1
 9181 10943 10941 1
 9182 10944 10941 1
 9183 10945 10944 1
 9184 10947 10946 1
 9185 10948 10947 1
 9186 10949 10947 1
 9187 10950 10947 1
 9188 10951 10950 1
 9189 10953 10952 1
 9190 10954 10953 1
 9191 10955 10953 1
 9192 10956 10953 1
 9193 10957 10956 1
 9194 10959 10958 1
 9195 10960 10959 1
 9196 10961 10959 1
 9197 10962 10959 1
 9198 10963 10962 1
 9199 10965 10964 1
 9200 10966 10965 1
 9201 10967 10965 1
 9202 10968 10965 1
 9203 10969 10968 1
 9204 10971 10970 1
 9205 10972 10971 1
 9206 10973 10971 1
 9207 10974 10971 1
 9208 10975 10974 1
 9209 10977 10976 1
 9210 10978 10977 1
 9211 10979 10977 1
 9212 10980 10977 1
 9213 10981 10980 1
 9214 10983 10982 1
 9215 10984 10983 1
 9216 10985 10983 1
 9217 10986 10983 1
 9218 10987 10986 1
 9219 10989 10988 1
 9220 10990 10989 1
 9221 10991 10989 1
 9222 10992 10989 1
 9223 10993 10992 1
 9224 10995 10994 1
 9225 10996 10995 1
 9226 10997 10995 1
 9227 10998 10995 1
 9228 10999 10998 1
 9229 11001 11000 1
 9230 11002 11001 1
 9231 11003 11001 1
 9232 11004 11001 1
 9233 11005 11004 1
 9234 11007 11006 1
 9235 11008 11007 1
 9236 11009 11007 1
 9237 11010 11007 1
 9238 11011 11010 1
 9239 11013 11012 1
 9240 11014 11013 1
 9241 11015 11013 1
 9242 11016 11013 1
 9243 11017 11016 1
 9244 11019 11018 1
 9245 11020 11019 1
 9246 11021 11019 1
 9247 11022 11019 1
 9248 11023 11022 1
 9249 11025 11024 1
 9250 11026 11025 1
 9251 11027 11025 1
 9252 11028 11025 1
 9253 11029 11028 1
 9254 11031 11030 1
 9255 11032 11031 1
 9256 11033 11031 1
 9257 11034 11031 1
 9258 11035 11034 1
 9259 11037 11036 1
 9260 11038 11037 1
 9261 11039 11037 1
 9262 11040 11037 1
 9263 11041 11040 1
 9264 11043 11042 1
 9265 11044 11043 1
 9266 11045 11043 1
 9267 11046 11043 1
 9268 11047 11046 1
 9269 11049 11048 1
 9270 11050 11049 1
 9271 11051 11049 1
 9272 11052 11049 1
 9273 11053 11052 1
 9274 11055 11054 1
 9275 11056 11055 1
 9276 11057 11055 1
 9277 11058 11055 1
 9278 11059 11058 1
 9279 11061 11060 1
 9280 11062 11061 1
 9281 11063 11061 1
 9282 11064 11061 1
 9283 11065 11064 1
 9284 11067 11066 1
 9285 11068 11067 1
 9286 11069 11067 1
 9287 11070 11067 1
 9288 11071 11070 1
 9289 11073 11072 1
 9290 11074 11073 1
 9291 11075 11073 1
 9292 11076 11073 1
 9293 11077 11076 1
 9294 11079 11078 1
 9295 11080 11079 1
 9296 11081 11079 1
 9297 11082 11079 1
 9298 11083 11082 1
 9299 11085 11084 1
 9300 11086 11085 1
 9301 11087 11085 1
 9302 11088 11085 1
 9303 11089 11088 1
 9304 11091 11090 1
 9305 11092 11091 1
 9306 11093 11091 1
 9307 11094 11091 1
 9308 11095 11094 1
 9309 11097 11096 1
 9310 11098 11097 1
 9311 11099 11097 1
 9312 11100 11097 1
 9313 11101 11100 1
 9314 11103 11102 1
 9315 11104 11103 1
 9316 11105 11103 1
 9317 11106 11103 1
 9318 11107 11106 1
 9319 11109 11108 1
 9320 11110 11109 1
 9321 11111 11109 1
 9322 11112 11109 1
 9323 11113 11112 1
 9324 11115 11114 1
 9325 11116 11115 1
 9326 11117 11115 1
 9327 11118 11115 1
 9328 11119 11118 1
 9329 11121 11120 1
 9330 11122 11121 1
 9331 11123 11121 1
 9332 11124 11121 1
 9333 11125 11124 1
 9334 11127 11126 1
 9335 11128 11127 1
 9336 11129 11127 1
 9337 11130 11127 1
 9338 11131 11130 1
 9339 11133 11132 1
 9340 11134 11133 1
 9341 11135 11133 1
 9342 11136 11133 1
 9343 11137 11136 1
 9344 11139 11138 1
 9345 11140 11139 1
 9346 11141 11139 1
 9347 11142 11139 1
 9348 11143 11142 1
 9349 11145 11144 1
 9350 11146 11145 1
 9351 11147 11145 1
 9352 11148 11145 1
 9353 11149 11148 1
 9354 11151 11150 1
 9355 11152 11151 1
 9356 11153 11151 1
 9357 11154 11151 1
 9358 11155 11154 1
 9359 11157 11156 1
 9360 11158 11157 1
 9361 11159 11157 1
 9362 11160 11157 1
 9363 11161 11160 1
 9364 11163 11162 1
 9365 11164 11163 1
 9366 11165 11163 1
 9367 11166 11163 1
 9368 11167 11166 1
 9369 11169 11168 1
 9370 11170 11169 1
 9371 11171 11169 1
 9372 11172 11169 1
 9373 11173 11172 1
 9374 11175 11174 1
 9375 11176 11175 1
 9376 11177 11175 1
 9377 11178 11175 1
 9378 11179 11178 1
 9379 11181 11180 1
 9380 11182 11181 1
 9381 11183 11181 1
 9382 11184 11181 1
 9383 11185 11184 1
 9384 11187 11186 1
 9385 11188 11187 1
 9386 11189 11187 1
 9387 11190 11187 1
 9388 11191 11190 1
 9389 11193 11192 1
 9390 11194 11193 1
 9391 11195 11193 1
 9392 11196 11193 1
 9393 11197 11196 1
 9394 11199 11198 1
 9395 11200 11199 1
 9396 11201 11199 1
 9397 11202 11199 1
 9398 11203 11202 1
 9399 11205 11204 1
 9400 11206 11205 1
 9401 11207 11205 1
 9402 11208 11205 1
 9403 11209 11208 1
 9404 11211 11210 1
 9405 11212 11211 1
 9406 11213 11211 1
 9407 11214 11211 1
 9408 11215 11214 1
 9409 11217 11216 1
 9410 11218 11217 1
 9411 11219 11217 1
 9412 11220 11217 1
 9413 11221 11220 1
 9414 11223 11222 1
 9415 11224 11223 1
 9416 11225 11223 1
 9417 11226 11223 1
 9418 11227 11226 1
 9419 11229 11228 1
 9420 11230 11229 1
 9421 11231 11229 1
 9422 11232 11229 1
 9423 11233 11232 1
 9424 11235 11234 1
 9425 11236 11235 1
 9426 11237 11235 1
 9427 11238 11235 1
 9428 11239 11238 1
 9429 11241 11240 1
 9430 11242 11241 1
 9431 11243 11241 1
 9432 11244 11241 1
 9433 11245 11244 1
 9434 11247 11246 1
 9435 11248 11247 1
 9436 11249 11247 1
 9437 11250 11247 1
 9438 11251 11250 1
 9439 11253 11252 1
 9440 11254 11253 1
 9441 11255 11253 1
 9442 11256 11253 1
 9443 11257 11256 1
 9444 11259 11258 1
 9445 11260 11259 1
 9446 11261 11259 1
 9447 11262 11259 1
 9448 11263 11262 1
 9449 11265 11264 1
 9450 11266 11265 1
 9451 11267 11265 1
 9452 11268 11265 1
 9453 11269 11268 1
 9454 11271 11270 1
 9455 11272 11271 1
 9456 11273 11271 1
 9457 11274 11271 1
 9458 11275 11274 1
 9459 11277 11276 1
 9460 11278 11277 1
 9461 11279 11277 1
 9462 11280 11277 1
 9463 11281 11280 1
 9464 11283 11282 1
 9465 11284 11283 1
 9466 11285 11283 1
 9467 11286 11283 1
 9468 11287 11286 1
 9469 11289 11288 1
 9470 11290 11289 1
 9471 11291 11289 1
 9472 11292 11289 1
 9473 11293 11292 1
 9474 11295 11294 1
 9475 11296 11295 1
 9476 11297 11295 1
 9477 11298 11295 1
 9478 11299 11298 1
 9479 11301 11300 1
 9480 11302 11301 1
 9481 11303 11301 1
 9482 11304 11301 1
 9483 11305 11304 1
 9484 11307 11306 1
 9485 11308 11307 1
 9486 11309 11307 1
 9487 11310 11307 1
 9488 11311 11310 1
 9489 11313 11312 1
 9490 11314 11313 1
 9491 11315 11313 1
 9492 11316 11313 1
 9493 11317 11316 1
 9494 11319 11318 1
 9495 11320 11319 1
 9496 11321 11319 1
 9497 11322 11319 1
 9498 11323 11322 1
 9499 11325 11324 1
 9500 11326 11325 1
 9501 11327 11325 1
 9502 11328 11325 1
 9503 11329 11328 1
 9504 11331 11330 1
 9505 11332 11331 1
 9506 11333 11331 1
 9507 11334 11331 1
 9508 11335 11334 1
 9509 11337 11336 1
 9510 11338 11337 1
 9511 11339 11337 1
 9512 11340 11337 1
 9513 11341 11340 1
 9514 11343 11342 1
 9515 11344 11343 1
 9516 11345 11343 1
 9517 11346 11343 1
 9518 11347 11346 1
 9519 11349 11348 1
 9520 11350 11349 1
 9521 11351 11349 1
 9522 11352 11349 1
 9523 11353 11352 1
 9524 11355 11354 1
 9525 11356 11355 1
 9526 11357 11355 1
 9527 11358 11355 1
 9528 11359 11358 1
 9529 11361 11360 1
 9530 11362 11361 1
 9531 11363 11361 1
 9532 11364 11361 1
 9533 11365 11364 1
 9534 11367 11366 1
 9535 11368 11367 1
 9536 11369 11367 1
 9537 11370 11367 1
 9538 11371 11370 1
 9539 11373 11372 1
 9540 11374 11373 1
 9541 11375 11373 1
 9542 11376 11373 1
 9543 11377 11376 1
 9544 11379 11378 1
 9545 11380 11379 1
 9546 11381 11379 1
 9547 11382 11379 1
 9548 11383 11382 1
 9549 11385 11384 1
 9550 11386 11385 1
 9551 11387 11385 1
 9552 11388 11385 1
 9553 11389 11388 1
 9554 11391 11390 1
 9555 11392 11391 1
 9556 11393 11391 1
 9557 11394 11391 1
 9558 11395 11394 1
 9559 11397 11396 1
 9560 11398 11397 1
 9561 11399 11397 1
 9562 11400 11397 1
 9563 11401 11400 1
 9564 11403 11402 1
 9565 11404 11403 1
 9566 11405 11403 1
 9567 11406 11403 1
 9568 11407 11406 1
 9569 11409 11408 1
 9570 11410 11409 1
 9571 11411 11409 1
 9572 11412 11409 1
 9573 11413 11412 1
 9574 11415 11414 1
 9575 11416 11415 1
 9576 11417 11415 1
 9577 11418 11415 1
 9578 11419 11418 1
 9579 11421 11420 1
 9580 11422 11421 1
 9581 11423 11421 1
 9582 11424 11421 1
 9583 11425 11424 1
 9584 11427 11426 1
 9585 11428 11427 1
 9586 11429 11427 1
 9587 11430 11427 1
 9588 11431 11430 1
 9589 11433 11432 1
 9590 11434 11433 1
 9591 11435 11433 1
 9592 11436 11433 1
 9593 11437 11436 1
 9594 11439 11438 1
 9595 11440 11439 1
 9596 11441 11439 1
 9597 11442 11439 1
 9598 11443 11442 1
 9599 11445 11444 1
 9600 11446 11445 1
 9601 11447 11445 1
 9602 11448 11445 1
 9603 11449 11448 1
 9604 11451 11450 1
 9605 11452 11451 1
 9606 11453 11451 1
 9607 11454 11451 1
 9608 11455 11454 1
 9609 11457 11456 1
 9610 11458 11457 1
 9611 11459 11457 1
 9612 11460 11457 1
 9613 11461 11460 1
 9614 11463 11462 1
 9615 11464 11463 1
 9616 11465 11463 1
 9617 11466 11463 1
 9618 11467 11466 1
 9619 11469 11468 1
 9620 11470 11469 1
 9621 11471 11469 1
 9622 11472 11469 1
 9623 11473 11472 1
 9624 11475 11474 1
 9625 11476 11475 1
 9626 11477 11475 1
 9627 11478 11475 1
 9628 11479 11478 1
 9629 11481 11480 1
 9630 11482 11481 1
 9631 11483 11481 1
 9632 11484 11481 1
 9633 11485 11484 1
 9634 11487 11486 1
 9635 11488 11487 1
 9636 11489 11487 1
 9637 11490 11487 1
 9638 11491 11490 1
 9639 11493 11492 1
 9640 11494 11493 1
 9641 11495 11493 1
 9642 11496 11493 1
 9643 11497 11496 1
 9644 11499 11498 1
 9645 11500 11499 1
 9646 11501 11499 1
 9647 11502 11499 1
 9648 11503 11502 1
 9649 11505 11504 1
 9650 11506 11505 1
 9651 11507 11505 1
 9652 11508 11505 1
 9653 11509 11508 1
 9654 11511 11510 1
 9655 11512 11511 1
 9656 11513 11511 1
 9657 11514 11511 1
 9658 11515 11514 1
 9659 11517 11516 1
 9660 11518 11517 1
 9661 11519 11517 1
 9662 11520 11517 1
 9663 11521 11520 1
 9664 11523 11522 1
 9665 11524 11523 1
 9666 11525 11523 1
 9667 11526 11523 1
 9668 11527 11526 1
 9669 11529 11528 1
 9670 11530 11529 1
 9671 11531 11529 1
 9672 11532 11529 1
 9673 11533 11532 1
 9674 11535 11534 1
 9675 11536 11535 1
 9676 11537 11535 1
 9677 11538 11535 1
 9678 11539 11538 1
 9679 11541 11540 1
 9680 11542 11541 1
 9681 11543 11541 1
 9682 11544 11541 1
 9683 11545 11544 1
 9684 11547 11546 1
 9685 11548 11547 1
 9686 11549 11547 1
 9687 11550 11547 1
 9688 11551 11550 1
 9689 11553 11552 1
 9690 11554 11553 1
 9691 11555 11553 1
 9692 11556 11553 1
 9693 11557 11556 1
 9694 11559 11558 1
 9695 11560 11559 1
 9696 11561 11559 1
 9697 11562 11559 1
 9698 11563 11562 1
 9699 11565 11564 1
 9700 11566 11565 1
 9701 11567 11565 1
 9702 11568 11565 1
 9703 11569 11568 1
 9704 11571 11570 1
 9705 11572 11571 1
 9706 11573 11571 1
 9707 11574 11571 1
 9708 11575 11574 1
 9709 11577 11576 1
 9710 11578 11577 1
 9711 11579 11577 1
 9712 11580 11577 1
 9713 11581 11580 1
 9714 11583 11582 1
 9715 11584 11583 1
 9716 11585 11583 1
 9717 11586 11583 1
 9718 11587 11586 1
 9719 11589 11588 1
 9720 11590 11589 1
 9721 11591 11589 1
 9722 11592 11589 1
 9723 11593 11592 1
 9724 11595 11594 1
 9725 11596 11595 1
 9726 11597 11595 1
 9727 11598 11595 1
 9728 11599 11598 1
 9729 11601 11600 1
 9730 11602 11601 1
 9731 11603 11601 1
 9732 11604 11601 1
 9733 11605 11604 1
 9734 11607 11606 1
 9735 11608 11607 1
 9736 11609 11607 1
 9737 11610 11607 1
 9738 11611 11610 1
 9739 11613 11612 1
 9740 11614 11613 1
 9741 11615 11613 1
 9742 11616 11613 1
 9743 11617 11616 1
 9744 11619 11618 1
 9745 11620 11619 1
 9746 11621 11619 1
 9747 11622 11619 1
 9748 11623 11622 1
 9749 11625 11624 1
 9750 11626 11625 1
 9751 11627 11625 1
 9752 11628 11625 1
 9753 11629 11628 1
 9754 11631 11630 1
 9755 11632 11631 1
 9756 11633 11631 1
 9757 11634 11631 1
 9758 11635 11634 1
 9759 11637 11636 1
 9760 11638 11637 1
 9761 11639 11637 1
 9762 11640 11637 1
 9763 11641 11640 1
 9764 11643 11642 1
 9765 11644 11643 1
 9766 11645 11643 1
 9767 11646 11643 1
 9768 11647 11646 1
 9769 11649 11648 1
 9770 11650 11649 1
 9771 11651 11649 1
 9772 11652 11649 1
 9773 11653 11652 1
 9774 11655 11654 1
 9775 11656 11655 1
 9776 11657 11655 1
 9777 11658 11655 1
 9778 11659 11658 1
 9779 11661 11660 1
 9780 11662 11661 1
 9781 11663 11661 1
 9782 11664 11661 1
 9783 11665 11664 1
 9784 11667 11666 1
 9785 11668 11667 1
 9786 11669 11667 1
 9787 11670 11667 1
 9788 11671 11670 1
 9789 11673 11672 1
 9790 11674 11673 1
 9791 11675 11673 1
 9792 11676 11673 1
 9793 11677 11676 1
 9794 11679 11678 1
 9795 11680 11679 1
 9796 11681 11679 1
 9797 11682 11679 1
 9798 11683 11682 1
 9799 11685 11684 1
 9800 11686 11685 1
 9801 11687 11685 1
 9802 11688 11685 1
 9803 11689 11688 1
 9804 11691 11690 1
 9805 11692 11691 1
 9806 11693 11691 1
 9807 11694 11691 1
 9808 11695 11694 1
 9809 11697 11696 1
 9810 11698 11697 1
 9811 11699 11697 1
 9812 11700 11697 1
 9813 11701 11700 1
 9814 11703 11702 1
 9815 11704 11703 1
 9816 11705 11703 1
 9817 11706 11703 1
 9818 11707 11706 1
 9819 11709 11708 1
 9820 11710 11709 1
 9821 11711 11709 1
 9822 11712 11709 1
 9823 11713 11712 1
 9824 11715 11714 1
 9825 11716 11715 1
 9826 11717 11715 1
 9827 11718 11715 1
 9828 11719 11718 1
 9829 11721 11720 1
 9830 11722 11721 1
 9831 11723 11721 1
 9832 11724 11721 1
 9833 11725 11724 1
 9834 11727 11726 1
 9835 11728 11727 1
 9836 11729 11727 1
 9837 11730 11727 1
 9838 11731 11730 1
 9839 11733 11732 1
 9840 11734 11733 1
 9841 11735 11733 1
 9842 11736 11733 1
 9843 11737 11736 1
 9844 11739 11738 1
 9845 11740 11739 1
 9846 11741 11739 1
 9847 11742 11739 1
 9848 11743 11742 1
 9849 11745 11744 1
 9850 11746 11745 1
 9851 11747 11745 1
 9852 11748 11745 1
 9853 11749 11748 1
 9854 11751 11750 1
 9855 11752 11751 1
 9856 11753 11751 1
 9857 11754 11751 1
 9858 11755 11754 1
 9859 11757 11756 1
 9860 11758 11757 1
 9861 11759 11757 1
 9862 11760 11757 1
 9863 11761 11760 1
 9864 11763 11762 1
 9865 11764 11763 1
 9866 11765 11763 1
 9867 11766 11763 1
 9868 11767 11766 1
 9869 11769 11768 1
 9870 11770 11769 1
 9871 11771 11769 1
 9872 11772 11769 1
 9873 11773 11772 1
 9874 11775 11774 1
 9875 11776 11775 1
 9876 11777 11775 1
 9877 11778 11775 1
 9878 11779 11778 1
 9879 11781 11780 1
 9880 11782 11781 1
 9881 11783 11781 1
 9882 11784 11781 1
 9883 11785 11784 1
 9884 11787 11786 1
 9885 11788 11787 1
 9886 11789 11787 1
 9887 11790 11787 1
 9888 11791 11790 1
 9889 11793 11792 1
 9890 11794 11793 1
 9891 11795 11793 1
 9892 11796 11793 1
 9893 11797 11796 1
 9894 11799 11798 1
 9895 11800 11799 1
 9896 11801 11799 1
 9897 11802 11799 1
 9898 11803 11802 1
 9899 11805 11804 1
 9900 11806 11805 1
 9901 11807 11805 1
 9902 11808 11805 1
 9903 11809 11808 1
 9904 11811 11810 1
 9905 11812 11811 1
 9906 11813 11811 1
 9907 11814 11811 1
 9908 11815 11814 1
 9909 11817 11816 1
 9910 11818 11817 1
 9911 11819 11817 1
 9912 11820 11817 1
 9913 11821 11820 1
 9914 11823 11822 1
 9915 11824 11823 1
 9916 11825 11823 1
 9917 11826 11823 1
 9918 11827 11826 1
 9919 11829 11828 1
 9920 11830 11829 1
 9921 11831 11829 1
 9922 11832 11829 1
 9923 11833 11832 1
 9924 11835 11834 1
 9925 11836 11835 1
 9926 11837 11835 1
 9927 11838 11835 1
 9928 11839 11838 1
 9929 11841 11840 1
 9930 11842 11841 1
 9931 11843 11841 1
 9932 11844 11841 1
 9933 11845 11844 1
 9934 11847 11846 1
 9935 11848 11847 1
 9936 11849 11847 1
 9937 11850 11847 1
 9938 11851 11850 1
 9939 11853 11852 1
 9940 11854 11853 1
 9941 11855 11853 1
 9942 11856 11853 1
 9943 11857 11856 1
 9944 11859 11858 1
 9945 11860 11859 1
 9946 11861 11859 1
 9947 11862 11859 1
 9948 11863 11862 1
 9949 11865 11864 1
 9950 11866 11865 1
 9951 11867 11865 1
 9952 11868 11865 1
 9953 11869 11868 1
 9954 11871 11870 1
 9955 11872 11871 1
 9956 11873 11871 1
 9957 11874 11871 1
 9958 11875 11874 1
 9959 11877 11876 1
 9960 11878 11877 1
 9961 11879 11877 1
 9962 11880 11877 1
 9963 11881 11880 1
 9964 11883 11882 1
 9965 11884 11883 1
 9966 11885 11883 1
 9967 11886 11883 1
 9968 11887 11886 1
 9969 11889 11888 1
 9970 11890 11889 1
 9971 11891 11889 1
 9972 11892 11889 1
 9973 11893 11892 1
 9974 11895 11894 1
 9975 11896 11895 1
 9976 11897 11895 1
 9977 11898 11895 1
 9978 11899 11898 1
 9979 11901 11900 1
 9980 11902 11901 1
 9981 11903 11901 1
 9982 11904 11901 1
 9983 11905 11904 1
 9984 11907 11906 1
 9985 11908 11907 1
 9986 11909 11907 1
 9987 11910 11907 1
 9988 11911 11910 1
 9989 11913 11912 1
 9990 11914 11913 1
 9991 11915 11913 1
 9992 11916 11913 1
 9993 11917 11916 1
 9994 11919 11918 1
 9995 11920 11919 1
 9996 11921 11919 1
 9997 11922 11919 1
 9998 11923 11922 1
 9999 11925 11924 1
10000 11926 11925 1
10001 11927 11925 1
10002 11928 11925 1
10003 11929 11928 1
10004 11931 11930 1
10005 11932 11931 1
10006 11933 11931 1
10007 11934 11931 1
10008 11935 11934 1
10009 11937 11936 1
10010 11938 11937 1
10011 11939 11937 1
10012 11940 11937 1
10013 11941 11940 1
10014 11943 11942 1
10015 11944 11943 1
10016 11945 11943 1
10017 11946 11943 1
10018 11947 11946 1
10019 11949 11948 1
10020 11950 11949 1
10021 11951 11949 1
10022 11952 11949 1
10023 11953 11952 1
10024 11955 11954 1
10025 11956 11955 1
10026 11957 11955 1
10027 11958 11955 1
10028 11959 11958 1
10029 11961 11960 1
10030 11962 11961 1
10031 11963 11961 1
10032 11964 11961 1
10033 11965 11964 1
10034 11967 11966 1
10035 11968 11967 1
10036 11969 11967 1
10037 11970 11967 1
10038 11971 11970 1
10039 11973 11972 1
10040 11974 11973 1
10041 11975 11973 1
10042 11976 11973 1
10043 11977 11976 1
10044 11979 11978 1
10045 11980 11979 1
10046 11981 11979 1
10047 11982 11979 1
10048 11983 11982 1
10049 11985 11984 1
10050 11986 11985 1
10051 11987 11985 1
10052 11988 11985 1
10053 11989 11988 1
10054 11991 11990 1
10055 11992 11991 1
10056 11993 11991 1
10057 11994 11991 1
10058 11995 11994 1
10059 11997 11996 1
10060 11998 11997 1
10061 11999 11997 1
10062 12000 11997 1
10063 12001 12000 1
10064 12003 12002 1
10065 12004 12003 1
10066 12005 12003 1
10067 12006 12003 1
10068 12007 12006 1
10069 12009 12008 1
10070 12010 12009 1
10071 12011 12009 1
10072 12012 12009 1
10073 12013 12012 1
10074 12015 12014 1
10075 12016 12015 1
10076 12017 12015 1
10077 12018 12015 1
10078 12019 12018 1
10079 12021 12020 1
10080 12022 12021 1
10081 12023 12021 1
10082 12024 12021 1
10083 12025 12024 1
10084 12027 12026 1
10085 12028 12027 1
10086 12029 12027 1
10087 12030 12027 1
10088 12031 12030 1
10089 12033 12032 1
10090 12034 12033 1
10091 12035 12033 1
10092 12036 12033 1
10093 12037 12036 1
10094 12039 12038 1
10095 12040 12039 1
10096 12041 12039 1
10097 12042 12039 1
10098 12043 12042 1
10099 12045 12044 1
10100 12046 12045 1
10101 12047 12045 1
10102 12048 12045 1
10103 12049 12048 1
10104 12051 12050 1
10105 12052 12051 1
10106 12053 12051 1
10107 12054 12051 1
10108 12055 12054 1
10109 12057 12056 1
10110 12058 12057 1
10111 12059 12057 1
10112 12060 12057 1
10113 12061 12060 1
10114 12063 12062 1
10115 12064 12063 1
10116 12065 12063 1
10117 12066 12063 1
10118 12067 12066 1
10119 12069 12068 1
10120 12070 12069 1
10121 12071 12069 1
10122 12072 12069 1
10123 12073 12072 1
10124 12075 12074 1
10125 12076 12075 1
10126 12077 12075 1
10127 12078 12075 1
10128 12079 12078 1
10129 12081 12080 1
10130 12082 12081 1
10131 12083 12081 1
10132 12084 12081 1
10133 12085 12084 1
10134 12087 12086 1
10135 12088 12087 1
10136 12089 12087 1
10137 12090 12087 1
10138 12091 12090 1
10139 12093 12092 1
10140 12094 12093 1
10141 12095 12093 1
10142 12096 12093 1
10143 12097 12096 1
10144 12099 12098 1
10145 12100 12099 1
10146 12101 12099 1
10147 12102 12099 1
10148 12103 12102 1
10149 12105 12104 1
10150 12106 12105 1
10151 12107 12105 1
10152 12108 12105 1
10153 12109 12108 1
10154 12111 12110 1
10155 12112 12111 1
10156 12113 12111 1
10157 12114 12111 1
10158 12115 12114 1
10159 12117 12116 1
10160 12118 12117 1
10161 12119 12117 1
10162 12120 12117 1
10163 12121 12120 1
10164 12123 12122 1
10165 12124 12123 1
10166 12125 12123 1
10167 12126 12123 1
10168 12127 12126 1
10169 12129 12128 1
10170 12130 12129 1
10171 12131 12129 1
10172 12132 12129 1
10173 12133 12132 1
10174 12135 12134 1
10175 12136 12135 1
10176 12137 12135 1
10177 12138 12135 1
10178 12139 12138 1
10179 12141 12140 1
10180 12142 12141 1
10181 12143 12141 1
10182 12144 12141 1
10183 12145 12144 1
10184 12147 12146 1
10185 12148 12147 1
10186 12149 12147 1
10187 12150 12147 1
10188 12151 12150 1
10189 12153 12152 1
10190 12154 12153 1
10191 12155 12153 1
10192 12156 12153 1
10193 12157 12156 1
10194 12159 12158 1
10195 12160 12159 1
10196 12161 12159 1
10197 12162 12159 1
10198 12163 12162 1
10199 12165 12164 1
10200 12166 12165 1
10201 12167 12165 1
10202 12168 12165 1
10203 12169 12168 1
10204 12171 12170 1
10205 12172 12171 1
10206 12173 12171 1
10207 12174 12171 1
10208 12175 12174 1
10209 12177 12176 1
10210 12178 12177 1
10211 12179 12177 1
10212 12180 12177 1
10213 12181 12180 1
10214 12183 12182 1
10215 12184 12183 1
10216 12185 12183 1
10217 12186 12183 1
10218 12187 12186 1
10219 12189 12188 1
10220 12190 12189 1
10221 12191 12189 1
10222 12192 12189 1
10223 12193 12192 1
10224 12195 12194 1
10225 12196 12195 1
10226 12197 12195 1
10227 12198 12195 1
10228 12199 12198 1
10229 12201 12200 1
10230 12202 12201 1
10231 12203 12201 1
10232 12204 12201 1
10233 12205 12204 1
10234 12207 12206 1
10235 12208 12207 1
10236 12209 12207 1
10237 12210 12207 1
10238 12211 12210 1
10239 12213 12212 1
10240 12214 12213 1
10241 12215 12213 1
10242 12216 12213 1
10243 12217 12216 1
10244 12219 12218 1
10245 12220 12219 1
10246 12221 12219 1
10247 12222 12219 1
10248 12223 12222 1
10249 12225 12224 1
10250 12226 12225 1
10251 12227 12225 1
10252 12228 12225 1
10253 12229 12228 1
10254 12231 12230 1
10255 12232 12231 1
10256 12233 12231 1
10257 12234 12231 1
10258 12235 12234 1
10259 12237 12236 1
10260 12238 12237 1
10261 12239 12237 1
10262 12240 12237 1
10263 12241 12240 1
10264 12243 12242 1
10265 12244 12243 1
10266 12245 12243 1
10267 12246 12243 1
10268 12247 12246 1
10269 12249 12248 1
10270 12250 12249 1
10271 12251 12249 1
10272 12252 12249 1
10273 12253 12252 1
10274 12255 12254 1
10275 12256 12255 1
10276 12257 12255 1
10277 12258 12255 1
10278 12259 12258 1
10279 12261 12260 1
10280 12262 12261 1
10281 12263 12261 1
10282 12264 12261 1
10283 12265 12264 1
10284 12267 12266 1
10285 12268 12267 1
10286 12269 12267 1
10287 12270 12267 1
10288 12271 12270 1
10289 12273 12272 1
10290 12274 12273 1
10291 12275 12273 1
10292 12276 12273 1
10293 12277 12276 1
10294 12279 12278 1
10295 12280 12279 1
10296 12281 12279 1
10297 12282 12279 1
10298 12283 12282 1
10299 12285 12284 1
10300 12286 12285 1
10301 12287 12285 1
10302 12288 12285 1
10303 12289 12288 1
@<TRIPOS>SUBSTRUCTURE
      1  XAP              1 ****               0 ****  **** 
      2 rAPO             14 ****               0 ****  **** 
      3 rPOP             65 ****               0 ****  **** 
      4 rOPO            113 ****               0 ****  **** 
      5 rPOO            164 ****               0 ****  **** 
      6 rOOO            212 ****               0 ****  **** 
      7 rOOO            260 ****               0 ****  **** 
      8 rOOT            308 ****               0 ****  **** 
      9 rOTX            353 ****               0 ****  **** 
     10  DNI            371 ****               0 ****  **** 
     11  Cl-            378 ****               0 ****  **** 
     12  Cl-            379 ****               0 ****  **** 
     13  MOH            380 ****               0 ****  **** 
     14  MOH            386 ****               0 ****  **** 
     15  MOH            392 ****               0 ****  **** 
     16  MOH            398 ****               0 ****  **** 
     17  MOH            404 ****               0 ****  **** 
     18  MOH            410 ****               0 ****  **** 
     19  MOH            416 ****               0 ****  **** 
     20  MOH            422 ****               0 ****  **** 
     21  MOH            428 ****               0 ****  **** 
     22  MOH            434 ****               0 ****  **** 
     23  MOH            440 ****               0 ****  **** 
     24  MOH            446 ****               0 ****  **** 
     25  MOH            452 ****               0 ****  **** 
     26  MOH            458 ****               0 ****  **** 
     27  MOH            464 ****               0 ****  **** 
     28  MOH            470 ****               0 ****  **** 
     29  MOH            476 ****               0 ****  **** 
     30  MOH            482 ****               0 ****  **** 
     31  MOH            488 ****               0 ****  **** 
     32  MOH            494 ****               0 ****  **** 
     33  MOH            500 ****               0 ****  **** 
     34  MOH            506 ****               0 ****  **** 
     35  MOH            512 ****               0 ****  **** 
     36  MOH            518 ****               0 ****  **** 
     37  MOH            524 ****               0 ****  **** 
     38  MOH            530 ****               0 ****  **** 
     39  MOH            536 ****               0 ****  **** 
     40  MOH            542 ****               0 ****  **** 
     41  MOH            548 ****               0 ****  **** 
     42  MOH            554 ****               0 ****  **** 
     43  MOH            560 ****               0 ****  **** 
     44  MOH            566 ****               0 ****  **** 
     45  MOH            572 ****               0 ****  **** 
     46  MOH            578 ****               0 ****  **** 
     47  MOH            584 ****               0 ****  **** 
     48  MOH            590 ****               0 ****  **** 
     49  MOH            596 ****               0 ****  **** 
     50  MOH            602 ****               0 ****  **** 
     51  MOH            608 ****               0 ****  **** 
     52  MOH            614 ****               0 ****  **** 
     53  MOH            620 ****               0 ****  **** 
     54  MOH            626 ****               0 ****  **** 
     55  MOH            632 ****               0 ****  **** 
     56  MOH            638 ****               0 ****  **** 
     57  MOH            644 ****               0 ****  **** 
     58  MOH            650 ****               0 ****  **** 
     59  MOH            656 ****               0 ****  **** 
     60  MOH            662 ****               0 ****  **** 
     61  MOH            668 ****               0 ****  **** 
     62  MOH            674 ****               0 ****  **** 
     63  MOH            680 ****               0 ****  **** 
     64  MOH            686 ****               0 ****  **** 
     65  MOH            692 ****               0 ****  **** 
     66  MOH            698 ****               0 ****  **** 
     67  MOH            704 ****               0 ****  **** 
     68  MOH            710 ****               0 ****  **** 
     69  MOH            716 ****               0 ****  **** 
     70  MOH            722 ****               0 ****  **** 
     71  MOH            728 ****               0 ****  **** 
     72  MOH            734 ****               0 ****  **** 
     73  MOH            740 ****               0 ****  **** 
     74  MOH            746 ****               0 ****  **** 
     75  MOH            752 ****               0 ****  **** 
     76  MOH            758 ****               0 ****  **** 
     77  MOH            764 ****               0 ****  **** 
     78  MOH            770 ****               0 ****  **** 
     79  MOH            776 ****               0 ****  **** 
     80  MOH            782 ****               0 ****  **** 
     81  MOH            788 ****               0 ****  **** 
     82  MOH            794 ****               0 ****  **** 
     83  MOH            800 ****               0 ****  **** 
     84  MOH            806 ****               0 ****  **** 
     85  MOH            812 ****               0 ****  **** 
     86  MOH            818 ****               0 ****  **** 
     87  MOH            824 ****               0 ****  **** 
     88  MOH            830 ****               0 ****  **** 
     89  MOH            836 ****               0 ****  **** 
     90  MOH            842 ****               0 ****  **** 
     91  MOH            848 ****               0 ****  **** 
     92  MOH            854 ****               0 ****  **** 
     93  MOH            860 ****               0 ****  **** 
     94  MOH            866 ****               0 ****  **** 
     95  MOH            872 ****               0 ****  **** 
     96  MOH            878 ****               0 ****  **** 
     97  MOH            884 ****               0 ****  **** 
     98  MOH            890 ****               0 ****  **** 
     99  MOH            896 ****               0 ****  **** 
    100  MOH            902 ****               0 ****  **** 
    101  MOH            908 ****               0 ****  **** 
    102  MOH            914 ****               0 ****  **** 
    103  MOH            920 ****               0 ****  **** 
    104  MOH            926 ****               0 ****  **** 
    105  MOH            932 ****               0 ****  **** 
    106  MOH            938 ****               0 ****  **** 
    107  MOH            944 ****               0 ****  **** 
    108  MOH            950 ****               0 ****  **** 
    109  MOH            956 ****               0 ****  **** 
    110  MOH            962 ****               0 ****  **** 
    111  MOH            968 ****               0 ****  **** 
    112  MOH            974 ****               0 ****  **** 
    113  MOH            980 ****               0 ****  **** 
    114  MOH            986 ****               0 ****  **** 
    115  MOH            992 ****               0 ****  **** 
    116  MOH            998 ****               0 ****  **** 
    117  MOH           1004 ****               0 ****  **** 
    118  MOH           1010 ****               0 ****  **** 
    119  MOH           1016 ****               0 ****  **** 
    120  MOH           1022 ****               0 ****  **** 
    121  MOH           1028 ****               0 ****  **** 
    122  MOH           1034 ****               0 ****  **** 
    123  MOH           1040 ****               0 ****  **** 
    124  MOH           1046 ****               0 ****  **** 
    125  MOH           1052 ****               0 ****  **** 
    126  MOH           1058 ****               0 ****  **** 
    127  MOH           1064 ****               0 ****  **** 
    128  MOH           1070 ****               0 ****  **** 
    129  MOH           1076 ****               0 ****  **** 
    130  MOH           1082 ****               0 ****  **** 
    131  MOH           1088 ****               0 ****  **** 
    132  MOH           1094 ****               0 ****  **** 
    133  MOH           1100 ****               0 ****  **** 
    134  MOH           1106 ****               0 ****  **** 
    135  MOH           1112 ****               0 ****  **** 
    136  MOH           1118 ****               0 ****  **** 
    137  MOH           1124 ****               0 ****  **** 
    138  MOH           1130 ****               0 ****  **** 
    139  MOH           1136 ****               0 ****  **** 
    140  MOH           1142 ****               0 ****  **** 
    141  MOH           1148 ****               0 ****  **** 
    142  MOH           1154 ****               0 ****  **** 
    143  MOH           1160 ****               0 ****  **** 
    144  MOH           1166 ****               0 ****  **** 
    145  MOH           1172 ****               0 ****  **** 
    146  MOH           1178 ****               0 ****  **** 
    147  MOH           1184 ****               0 ****  **** 
    148  MOH           1190 ****               0 ****  **** 
    149  MOH           1196 ****               0 ****  **** 
    150  MOH           1202 ****               0 ****  **** 
    151  MOH           1208 ****               0 ****  **** 
    152  MOH           1214 ****               0 ****  **** 
    153  MOH           1220 ****               0 ****  **** 
    154  MOH           1226 ****               0 ****  **** 
    155  MOH           1232 ****               0 ****  **** 
    156  MOH           1238 ****               0 ****  **** 
    157  MOH           1244 ****               0 ****  **** 
    158  MOH           1250 ****               0 ****  **** 
    159  MOH           1256 ****               0 ****  **** 
    160  MOH           1262 ****               0 ****  **** 
    161  MOH           1268 ****               0 ****  **** 
    162  MOH           1274 ****               0 ****  **** 
    163  MOH           1280 ****               0 ****  **** 
    164  MOH           1286 ****               0 ****  **** 
    165  MOH           1292 ****               0 ****  **** 
    166  MOH           1298 ****               0 ****  **** 
    167  MOH           1304 ****               0 ****  **** 
    168  MOH           1310 ****               0 ****  **** 
    169  MOH           1316 ****               0 ****  **** 
    170  MOH           1322 ****               0 ****  **** 
    171  MOH           1328 ****               0 ****  **** 
    172  MOH           1334 ****               0 ****  **** 
    173  MOH           1340 ****               0 ****  **** 
    174  MOH           1346 ****               0 ****  **** 
    175  MOH           1352 ****               0 ****  **** 
    176  MOH           1358 ****               0 ****  **** 
    177  MOH           1364 ****               0 ****  **** 
    178  MOH           1370 ****               0 ****  **** 
    179  MOH           1376 ****               0 ****  **** 
    180  MOH           1382 ****               0 ****  **** 
    181  MOH           1388 ****               0 ****  **** 
    182  MOH           1394 ****               0 ****  **** 
    183  MOH           1400 ****               0 ****  **** 
    184  MOH           1406 ****               0 ****  **** 
    185  MOH           1412 ****               0 ****  **** 
    186  MOH           1418 ****               0 ****  **** 
    187  MOH           1424 ****               0 ****  **** 
    188  MOH           1430 ****               0 ****  **** 
    189  MOH           1436 ****               0 ****  **** 
    190  MOH           1442 ****               0 ****  **** 
    191  MOH           1448 ****               0 ****  **** 
    192  MOH           1454 ****               0 ****  **** 
    193  MOH           1460 ****               0 ****  **** 
    194  MOH           1466 ****               0 ****  **** 
    195  MOH           1472 ****               0 ****  **** 
    196  MOH           1478 ****               0 ****  **** 
    197  MOH           1484 ****               0 ****  **** 
    198  MOH           1490 ****               0 ****  **** 
    199  MOH           1496 ****               0 ****  **** 
    200  MOH           1502 ****               0 ****  **** 
    201  MOH           1508 ****               0 ****  **** 
    202  MOH           1514 ****               0 ****  **** 
    203  MOH           1520 ****               0 ****  **** 
    204  MOH           1526 ****               0 ****  **** 
    205  MOH           1532 ****               0 ****  **** 
    206  MOH           1538 ****               0 ****  **** 
    207  MOH           1544 ****               0 ****  **** 
    208  MOH           1550 ****               0 ****  **** 
    209  MOH           1556 ****               0 ****  **** 
    210  MOH           1562 ****               0 ****  **** 
    211  MOH           1568 ****               0 ****  **** 
    212  MOH           1574 ****               0 ****  **** 
    213  MOH           1580 ****               0 ****  **** 
    214  MOH           1586 ****               0 ****  **** 
    215  MOH           1592 ****               0 ****  **** 
    216  MOH           1598 ****               0 ****  **** 
    217  MOH           1604 ****               0 ****  **** 
    218  MOH           1610 ****               0 ****  **** 
    219  MOH           1616 ****               0 ****  **** 
    220  MOH           1622 ****               0 ****  **** 
    221  MOH           1628 ****               0 ****  **** 
    222  MOH           1634 ****               0 ****  **** 
    223  MOH           1640 ****               0 ****  **** 
    224  MOH           1646 ****               0 ****  **** 
    225  MOH           1652 ****               0 ****  **** 
    226  MOH           1658 ****               0 ****  **** 
    227  MOH           1664 ****               0 ****  **** 
    228  MOH           1670 ****               0 ****  **** 
    229  MOH           1676 ****               0 ****  **** 
    230  MOH           1682 ****               0 ****  **** 
    231  MOH           1688 ****               0 ****  **** 
    232  MOH           1694 ****               0 ****  **** 
    233  MOH           1700 ****               0 ****  **** 
    234  MOH           1706 ****               0 ****  **** 
    235  MOH           1712 ****               0 ****  **** 
    236  MOH           1718 ****               0 ****  **** 
    237  MOH           1724 ****               0 ****  **** 
    238  MOH           1730 ****               0 ****  **** 
    239  MOH           1736 ****               0 ****  **** 
    240  MOH           1742 ****               0 ****  **** 
    241  MOH           1748 ****               0 ****  **** 
    242  MOH           1754 ****               0 ****  **** 
    243  MOH           1760 ****               0 ****  **** 
    244  MOH           1766 ****               0 ****  **** 
    245  MOH           1772 ****               0 ****  **** 
    246  MOH           1778 ****               0 ****  **** 
    247  MOH           1784 ****               0 ****  **** 
    248  MOH           1790 ****               0 ****  **** 
    249  MOH           1796 ****               0 ****  **** 
    250  MOH           1802 ****               0 ****  **** 
    251  MOH           1808 ****               0 ****  **** 
    252  MOH           1814 ****               0 ****  **** 
    253  MOH           1820 ****               0 ****  **** 
    254  MOH           1826 ****               0 ****  **** 
    255  MOH           1832 ****               0 ****  **** 
    256  MOH           1838 ****               0 ****  **** 
    257  MOH           1844 ****               0 ****  **** 
    258  MOH           1850 ****               0 ****  **** 
    259  MOH           1856 ****               0 ****  **** 
    260  MOH           1862 ****               0 ****  **** 
    261  MOH           1868 ****               0 ****  **** 
    262  MOH           1874 ****               0 ****  **** 
    263  MOH           1880 ****               0 ****  **** 
    264  MOH           1886 ****               0 ****  **** 
    265  MOH           1892 ****               0 ****  **** 
    266  MOH           1898 ****               0 ****  **** 
    267  MOH           1904 ****               0 ****  **** 
    268  MOH           1910 ****               0 ****  **** 
    269  MOH           1916 ****               0 ****  **** 
    270  MOH           1922 ****               0 ****  **** 
    271  MOH           1928 ****               0 ****  **** 
    272  MOH           1934 ****               0 ****  **** 
    273  MOH           1940 ****               0 ****  **** 
    274  MOH           1946 ****               0 ****  **** 
    275  MOH           1952 ****               0 ****  **** 
    276  MOH           1958 ****               0 ****  **** 
    277  MOH           1964 ****               0 ****  **** 
    278  MOH           1970 ****               0 ****  **** 
    279  MOH           1976 ****               0 ****  **** 
    280  MOH           1982 ****               0 ****  **** 
    281  MOH           1988 ****               0 ****  **** 
    282  MOH           1994 ****               0 ****  **** 
    283  MOH           2000 ****               0 ****  **** 
    284  MOH           2006 ****               0 ****  **** 
    285  MOH           2012 ****               0 ****  **** 
    286  MOH           2018 ****               0 ****  **** 
    287  MOH           2024 ****               0 ****  **** 
    288  MOH           2030 ****               0 ****  **** 
    289  MOH           2036 ****               0 ****  **** 
    290  MOH           2042 ****               0 ****  **** 
    291  MOH           2048 ****               0 ****  **** 
    292  MOH           2054 ****               0 ****  **** 
    293  MOH           2060 ****               0 ****  **** 
    294  MOH           2066 ****               0 ****  **** 
    295  MOH           2072 ****               0 ****  **** 
    296  MOH           2078 ****               0 ****  **** 
    297  MOH           2084 ****               0 ****  **** 
    298  MOH           2090 ****               0 ****  **** 
    299  MOH           2096 ****               0 ****  **** 
    300  MOH           2102 ****               0 ****  **** 
    301  MOH           2108 ****               0 ****  **** 
    302  MOH           2114 ****               0 ****  **** 
    303  MOH           2120 ****               0 ****  **** 
    304  MOH           2126 ****               0 ****  **** 
    305  MOH           2132 ****               0 ****  **** 
    306  MOH           2138 ****               0 ****  **** 
    307  MOH           2144 ****               0 ****  **** 
    308  MOH           2150 ****               0 ****  **** 
    309  MOH           2156 ****               0 ****  **** 
    310  MOH           2162 ****               0 ****  **** 
    311  MOH           2168 ****               0 ****  **** 
    312  MOH           2174 ****               0 ****  **** 
    313  MOH           2180 ****               0 ****  **** 
    314  MOH           2186 ****               0 ****  **** 
    315  MOH           2192 ****               0 ****  **** 
    316  MOH           2198 ****               0 ****  **** 
    317  MOH           2204 ****               0 ****  **** 
    318  MOH           2210 ****               0 ****  **** 
    319  MOH           2216 ****               0 ****  **** 
    320  MOH           2222 ****               0 ****  **** 
    321  MOH           2228 ****               0 ****  **** 
    322  MOH           2234 ****               0 ****  **** 
    323  MOH           2240 ****               0 ****  **** 
    324  MOH           2246 ****               0 ****  **** 
    325  MOH           2252 ****               0 ****  **** 
    326  MOH           2258 ****               0 ****  **** 
    327  MOH           2264 ****               0 ****  **** 
    328  MOH           2270 ****               0 ****  **** 
    329  MOH           2276 ****               0 ****  **** 
    330  MOH           2282 ****               0 ****  **** 
    331  MOH           2288 ****               0 ****  **** 
    332  MOH           2294 ****               0 ****  **** 
    333  MOH           2300 ****               0 ****  **** 
    334  MOH           2306 ****               0 ****  **** 
    335  MOH           2312 ****               0 ****  **** 
    336  MOH           2318 ****               0 ****  **** 
    337  MOH           2324 ****               0 ****  **** 
    338  MOH           2330 ****               0 ****  **** 
    339  MOH           2336 ****               0 ****  **** 
    340  MOH           2342 ****               0 ****  **** 
    341  MOH           2348 ****               0 ****  **** 
    342  MOH           2354 ****               0 ****  **** 
    343  MOH           2360 ****               0 ****  **** 
    344  MOH           2366 ****               0 ****  **** 
    345  MOH           2372 ****               0 ****  **** 
    346  MOH           2378 ****               0 ****  **** 
    347  MOH           2384 ****               0 ****  **** 
    348  MOH           2390 ****               0 ****  **** 
    349  MOH           2396 ****               0 ****  **** 
    350  MOH           2402 ****               0 ****  **** 
    351  MOH           2408 ****               0 ****  **** 
    352  MOH           2414 ****               0 ****  **** 
    353  MOH           2420 ****               0 ****  **** 
    354  MOH           2426 ****               0 ****  **** 
    355  MOH           2432 ****               0 ****  **** 
    356  MOH           2438 ****               0 ****  **** 
    357  MOH           2444 ****               0 ****  **** 
    358  MOH           2450 ****               0 ****  **** 
    359  MOH           2456 ****               0 ****  **** 
    360  MOH           2462 ****               0 ****  **** 
    361  MOH           2468 ****               0 ****  **** 
    362  MOH           2474 ****               0 ****  **** 
    363  MOH           2480 ****               0 ****  **** 
    364  MOH           2486 ****               0 ****  **** 
    365  MOH           2492 ****               0 ****  **** 
    366  MOH           2498 ****               0 ****  **** 
    367  MOH           2504 ****               0 ****  **** 
    368  MOH           2510 ****               0 ****  **** 
    369  MOH           2516 ****               0 ****  **** 
    370  MOH           2522 ****               0 ****  **** 
    371  MOH           2528 ****               0 ****  **** 
    372  MOH           2534 ****               0 ****  **** 
    373  MOH           2540 ****               0 ****  **** 
    374  MOH           2546 ****               0 ****  **** 
    375  MOH           2552 ****               0 ****  **** 
    376  MOH           2558 ****               0 ****  **** 
    377  MOH           2564 ****               0 ****  **** 
    378  MOH           2570 ****               0 ****  **** 
    379  MOH           2576 ****               0 ****  **** 
    380  MOH           2582 ****               0 ****  **** 
    381  MOH           2588 ****               0 ****  **** 
    382  MOH           2594 ****               0 ****  **** 
    383  MOH           2600 ****               0 ****  **** 
    384  MOH           2606 ****               0 ****  **** 
    385  MOH           2612 ****               0 ****  **** 
    386  MOH           2618 ****               0 ****  **** 
    387  MOH           2624 ****               0 ****  **** 
    388  MOH           2630 ****               0 ****  **** 
    389  MOH           2636 ****               0 ****  **** 
    390  MOH           2642 ****               0 ****  **** 
    391  MOH           2648 ****               0 ****  **** 
    392  MOH           2654 ****               0 ****  **** 
    393  MOH           2660 ****               0 ****  **** 
    394  MOH           2666 ****               0 ****  **** 
    395  MOH           2672 ****               0 ****  **** 
    396  MOH           2678 ****               0 ****  **** 
    397  MOH           2684 ****               0 ****  **** 
    398  MOH           2690 ****               0 ****  **** 
    399  MOH           2696 ****               0 ****  **** 
    400  MOH           2702 ****               0 ****  **** 
    401  MOH           2708 ****               0 ****  **** 
    402  MOH           2714 ****               0 ****  **** 
    403  MOH           2720 ****               0 ****  **** 
    404  MOH           2726 ****               0 ****  **** 
    405  MOH           2732 ****               0 ****  **** 
    406  MOH           2738 ****               0 ****  **** 
    407  MOH           2744 ****               0 ****  **** 
    408  MOH           2750 ****               0 ****  **** 
    409  MOH           2756 ****               0 ****  **** 
    410  MOH           2762 ****               0 ****  **** 
    411  MOH           2768 ****               0 ****  **** 
    412  MOH           2774 ****               0 ****  **** 
    413  MOH           2780 ****               0 ****  **** 
    414  MOH           2786 ****               0 ****  **** 
    415  MOH           2792 ****               0 ****  **** 
    416  MOH           2798 ****               0 ****  **** 
    417  MOH           2804 ****               0 ****  **** 
    418  MOH           2810 ****               0 ****  **** 
    419  MOH           2816 ****               0 ****  **** 
    420  MOH           2822 ****               0 ****  **** 
    421  MOH           2828 ****               0 ****  **** 
    422  MOH           2834 ****               0 ****  **** 
    423  MOH           2840 ****               0 ****  **** 
    424  MOH           2846 ****               0 ****  **** 
    425  MOH           2852 ****               0 ****  **** 
    426  MOH           2858 ****               0 ****  **** 
    427  MOH           2864 ****               0 ****  **** 
    428  MOH           2870 ****               0 ****  **** 
    429  MOH           2876 ****               0 ****  **** 
    430  MOH           2882 ****               0 ****  **** 
    431  MOH           2888 ****               0 ****  **** 
    432  MOH           2894 ****               0 ****  **** 
    433  MOH           2900 ****               0 ****  **** 
    434  MOH           2906 ****               0 ****  **** 
    435  MOH           2912 ****               0 ****  **** 
    436  MOH           2918 ****               0 ****  **** 
    437  MOH           2924 ****               0 ****  **** 
    438  MOH           2930 ****               0 ****  **** 
    439  MOH           2936 ****               0 ****  **** 
    440  MOH           2942 ****               0 ****  **** 
    441  MOH           2948 ****               0 ****  **** 
    442  MOH           2954 ****               0 ****  **** 
    443  MOH           2960 ****               0 ****  **** 
    444  MOH           2966 ****               0 ****  **** 
    445  MOH           2972 ****               0 ****  **** 
    446  MOH           2978 ****               0 ****  **** 
    447  MOH           2984 ****               0 ****  **** 
    448  MOH           2990 ****               0 ****  **** 
    449  MOH           2996 ****               0 ****  **** 
    450  MOH           3002 ****               0 ****  **** 
    451  MOH           3008 ****               0 ****  **** 
    452  MOH           3014 ****               0 ****  **** 
    453  MOH           3020 ****               0 ****  **** 
    454  MOH           3026 ****               0 ****  **** 
    455  MOH           3032 ****               0 ****  **** 
    456  MOH           3038 ****               0 ****  **** 
    457  MOH           3044 ****               0 ****  **** 
    458  MOH           3050 ****               0 ****  **** 
    459  MOH           3056 ****               0 ****  **** 
    460  MOH           3062 ****               0 ****  **** 
    461  MOH           3068 ****               0 ****  **** 
    462  MOH           3074 ****               0 ****  **** 
    463  MOH           3080 ****               0 ****  **** 
    464  MOH           3086 ****               0 ****  **** 
    465  MOH           3092 ****               0 ****  **** 
    466  MOH           3098 ****               0 ****  **** 
    467  MOH           3104 ****               0 ****  **** 
    468  MOH           3110 ****               0 ****  **** 
    469  MOH           3116 ****               0 ****  **** 
    470  MOH           3122 ****               0 ****  **** 
    471  MOH           3128 ****               0 ****  **** 
    472  MOH           3134 ****               0 ****  **** 
    473  MOH           3140 ****               0 ****  **** 
    474  MOH           3146 ****               0 ****  **** 
    475  MOH           3152 ****               0 ****  **** 
    476  MOH           3158 ****               0 ****  **** 
    477  MOH           3164 ****               0 ****  **** 
    478  MOH           3170 ****               0 ****  **** 
    479  MOH           3176 ****               0 ****  **** 
    480  MOH           3182 ****               0 ****  **** 
    481  MOH           3188 ****               0 ****  **** 
    482  MOH           3194 ****               0 ****  **** 
    483  MOH           3200 ****               0 ****  **** 
    484  MOH           3206 ****               0 ****  **** 
    485  MOH           3212 ****               0 ****  **** 
    486  MOH           3218 ****               0 ****  **** 
    487  MOH           3224 ****               0 ****  **** 
    488  MOH           3230 ****               0 ****  **** 
    489  MOH           3236 ****               0 ****  **** 
    490  MOH           3242 ****               0 ****  **** 
    491  MOH           3248 ****               0 ****  **** 
    492  MOH           3254 ****               0 ****  **** 
    493  MOH           3260 ****               0 ****  **** 
    494  MOH           3266 ****               0 ****  **** 
    495  MOH           3272 ****               0 ****  **** 
    496  MOH           3278 ****               0 ****  **** 
    497  MOH           3284 ****               0 ****  **** 
    498  MOH           3290 ****               0 ****  **** 
    499  MOH           3296 ****               0 ****  **** 
    500  MOH           3302 ****               0 ****  **** 
    501  MOH           3308 ****               0 ****  **** 
    502  MOH           3314 ****               0 ****  **** 
    503  MOH           3320 ****               0 ****  **** 
    504  MOH           3326 ****               0 ****  **** 
    505  MOH           3332 ****               0 ****  **** 
    506  MOH           3338 ****               0 ****  **** 
    507  MOH           3344 ****               0 ****  **** 
    508  MOH           3350 ****               0 ****  **** 
    509  MOH           3356 ****               0 ****  **** 
    510  MOH           3362 ****               0 ****  **** 
    511  MOH           3368 ****               0 ****  **** 
    512  MOH           3374 ****               0 ****  **** 
    513  MOH           3380 ****               0 ****  **** 
    514  MOH           3386 ****               0 ****  **** 
    515  MOH           3392 ****               0 ****  **** 
    516  MOH           3398 ****               0 ****  **** 
    517  MOH           3404 ****               0 ****  **** 
    518  MOH           3410 ****               0 ****  **** 
    519  MOH           3416 ****               0 ****  **** 
    520  MOH           3422 ****               0 ****  **** 
    521  MOH           3428 ****               0 ****  **** 
    522  MOH           3434 ****               0 ****  **** 
    523  MOH           3440 ****               0 ****  **** 
    524  MOH           3446 ****               0 ****  **** 
    525  MOH           3452 ****               0 ****  **** 
    526  MOH           3458 ****               0 ****  **** 
    527  MOH           3464 ****               0 ****  **** 
    528  MOH           3470 ****               0 ****  **** 
    529  MOH           3476 ****               0 ****  **** 
    530  MOH           3482 ****               0 ****  **** 
    531  MOH           3488 ****               0 ****  **** 
    532  MOH           3494 ****               0 ****  **** 
    533  MOH           3500 ****               0 ****  **** 
    534  MOH           3506 ****               0 ****  **** 
    535  MOH           3512 ****               0 ****  **** 
    536  MOH           3518 ****               0 ****  **** 
    537  MOH           3524 ****               0 ****  **** 
    538  MOH           3530 ****               0 ****  **** 
    539  MOH           3536 ****               0 ****  **** 
    540  MOH           3542 ****               0 ****  **** 
    541  MOH           3548 ****               0 ****  **** 
    542  MOH           3554 ****               0 ****  **** 
    543  MOH           3560 ****               0 ****  **** 
    544  MOH           3566 ****               0 ****  **** 
    545  MOH           3572 ****               0 ****  **** 
    546  MOH           3578 ****               0 ****  **** 
    547  MOH           3584 ****               0 ****  **** 
    548  MOH           3590 ****               0 ****  **** 
    549  MOH           3596 ****               0 ****  **** 
    550  MOH           3602 ****               0 ****  **** 
    551  MOH           3608 ****               0 ****  **** 
    552  MOH           3614 ****               0 ****  **** 
    553  MOH           3620 ****               0 ****  **** 
    554  MOH           3626 ****               0 ****  **** 
    555  MOH           3632 ****               0 ****  **** 
    556  MOH           3638 ****               0 ****  **** 
    557  MOH           3644 ****               0 ****  **** 
    558  MOH           3650 ****               0 ****  **** 
    559  MOH           3656 ****               0 ****  **** 
    560  MOH           3662 ****               0 ****  **** 
    561  MOH           3668 ****               0 ****  **** 
    562  MOH           3674 ****               0 ****  **** 
    563  MOH           3680 ****               0 ****  **** 
    564  MOH           3686 ****               0 ****  **** 
    565  MOH           3692 ****               0 ****  **** 
    566  MOH           3698 ****               0 ****  **** 
    567  MOH           3704 ****               0 ****  **** 
    568  MOH           3710 ****               0 ****  **** 
    569  MOH           3716 ****               0 ****  **** 
    570  MOH           3722 ****               0 ****  **** 
    571  MOH           3728 ****               0 ****  **** 
    572  MOH           3734 ****               0 ****  **** 
    573  MOH           3740 ****               0 ****  **** 
    574  MOH           3746 ****               0 ****  **** 
    575  MOH           3752 ****               0 ****  **** 
    576  MOH           3758 ****               0 ****  **** 
    577  MOH           3764 ****               0 ****  **** 
    578  MOH           3770 ****               0 ****  **** 
    579  MOH           3776 ****               0 ****  **** 
    580  MOH           3782 ****               0 ****  **** 
    581  MOH           3788 ****               0 ****  **** 
    582  MOH           3794 ****               0 ****  **** 
    583  MOH           3800 ****               0 ****  **** 
    584  MOH           3806 ****               0 ****  **** 
    585  MOH           3812 ****               0 ****  **** 
    586  MOH           3818 ****               0 ****  **** 
    587  MOH           3824 ****               0 ****  **** 
    588  MOH           3830 ****               0 ****  **** 
    589  MOH           3836 ****               0 ****  **** 
    590  MOH           3842 ****               0 ****  **** 
    591  MOH           3848 ****               0 ****  **** 
    592  MOH           3854 ****               0 ****  **** 
    593  MOH           3860 ****               0 ****  **** 
    594  MOH           3866 ****               0 ****  **** 
    595  MOH           3872 ****               0 ****  **** 
    596  MOH           3878 ****               0 ****  **** 
    597  MOH           3884 ****               0 ****  **** 
    598  MOH           3890 ****               0 ****  **** 
    599  MOH           3896 ****               0 ****  **** 
    600  MOH           3902 ****               0 ****  **** 
    601  MOH           3908 ****               0 ****  **** 
    602  MOH           3914 ****               0 ****  **** 
    603  MOH           3920 ****               0 ****  **** 
    604  MOH           3926 ****               0 ****  **** 
    605  MOH           3932 ****               0 ****  **** 
    606  MOH           3938 ****               0 ****  **** 
    607  MOH           3944 ****               0 ****  **** 
    608  MOH           3950 ****               0 ****  **** 
    609  MOH           3956 ****               0 ****  **** 
    610  MOH           3962 ****               0 ****  **** 
    611  MOH           3968 ****               0 ****  **** 
    612  MOH           3974 ****               0 ****  **** 
    613  MOH           3980 ****               0 ****  **** 
    614  MOH           3986 ****               0 ****  **** 
    615  MOH           3992 ****               0 ****  **** 
    616  MOH           3998 ****               0 ****  **** 
    617  MOH           4004 ****               0 ****  **** 
    618  MOH           4010 ****               0 ****  **** 
    619  MOH           4016 ****               0 ****  **** 
    620  MOH           4022 ****               0 ****  **** 
    621  MOH           4028 ****               0 ****  **** 
    622  MOH           4034 ****               0 ****  **** 
    623  MOH           4040 ****               0 ****  **** 
    624  MOH           4046 ****               0 ****  **** 
    625  MOH           4052 ****               0 ****  **** 
    626  MOH           4058 ****               0 ****  **** 
    627  MOH           4064 ****               0 ****  **** 
    628  MOH           4070 ****               0 ****  **** 
    629  MOH           4076 ****               0 ****  **** 
    630  MOH           4082 ****               0 ****  **** 
    631  MOH           4088 ****               0 ****  **** 
    632  MOH           4094 ****               0 ****  **** 
    633  MOH           4100 ****               0 ****  **** 
    634  MOH           4106 ****               0 ****  **** 
    635  MOH           4112 ****               0 ****  **** 
    636  MOH           4118 ****               0 ****  **** 
    637  MOH           4124 ****               0 ****  **** 
    638  MOH           4130 ****               0 ****  **** 
    639  MOH           4136 ****               0 ****  **** 
    640  MOH           4142 ****               0 ****  **** 
    641  MOH           4148 ****               0 ****  **** 
    642  MOH           4154 ****               0 ****  **** 
    643  MOH           4160 ****               0 ****  **** 
    644  MOH           4166 ****               0 ****  **** 
    645  MOH           4172 ****               0 ****  **** 
    646  MOH           4178 ****               0 ****  **** 
    647  MOH           4184 ****               0 ****  **** 
    648  MOH           4190 ****               0 ****  **** 
    649  MOH           4196 ****               0 ****  **** 
    650  MOH           4202 ****               0 ****  **** 
    651  MOH           4208 ****               0 ****  **** 
    652  MOH           4214 ****               0 ****  **** 
    653  MOH           4220 ****               0 ****  **** 
    654  MOH           4226 ****               0 ****  **** 
    655  MOH           4232 ****               0 ****  **** 
    656  MOH           4238 ****               0 ****  **** 
    657  MOH           4244 ****               0 ****  **** 
    658  MOH           4250 ****               0 ****  **** 
    659  MOH           4256 ****               0 ****  **** 
    660  MOH           4262 ****               0 ****  **** 
    661  MOH           4268 ****               0 ****  **** 
    662  MOH           4274 ****               0 ****  **** 
    663  MOH           4280 ****               0 ****  **** 
    664  MOH           4286 ****               0 ****  **** 
    665  MOH           4292 ****               0 ****  **** 
    666  MOH           4298 ****               0 ****  **** 
    667  MOH           4304 ****               0 ****  **** 
    668  MOH           4310 ****               0 ****  **** 
    669  MOH           4316 ****               0 ****  **** 
    670  MOH           4322 ****               0 ****  **** 
    671  MOH           4328 ****               0 ****  **** 
    672  MOH           4334 ****               0 ****  **** 
    673  MOH           4340 ****               0 ****  **** 
    674  MOH           4346 ****               0 ****  **** 
    675  MOH           4352 ****               0 ****  **** 
    676  MOH           4358 ****               0 ****  **** 
    677  MOH           4364 ****               0 ****  **** 
    678  MOH           4370 ****               0 ****  **** 
    679  MOH           4376 ****               0 ****  **** 
    680  MOH           4382 ****               0 ****  **** 
    681  MOH           4388 ****               0 ****  **** 
    682  MOH           4394 ****               0 ****  **** 
    683  MOH           4400 ****               0 ****  **** 
    684  MOH           4406 ****               0 ****  **** 
    685  MOH           4412 ****               0 ****  **** 
    686  MOH           4418 ****               0 ****  **** 
    687  MOH           4424 ****               0 ****  **** 
    688  MOH           4430 ****               0 ****  **** 
    689  MOH           4436 ****               0 ****  **** 
    690  MOH           4442 ****               0 ****  **** 
    691  MOH           4448 ****               0 ****  **** 
    692  MOH           4454 ****               0 ****  **** 
    693  MOH           4460 ****               0 ****  **** 
    694  MOH           4466 ****               0 ****  **** 
    695  MOH           4472 ****               0 ****  **** 
    696  MOH           4478 ****               0 ****  **** 
    697  MOH           4484 ****               0 ****  **** 
    698  MOH           4490 ****               0 ****  **** 
    699  MOH           4496 ****               0 ****  **** 
    700  MOH           4502 ****               0 ****  **** 
    701  MOH           4508 ****               0 ****  **** 
    702  MOH           4514 ****               0 ****  **** 
    703  MOH           4520 ****               0 ****  **** 
    704  MOH           4526 ****               0 ****  **** 
    705  MOH           4532 ****               0 ****  **** 
    706  MOH           4538 ****               0 ****  **** 
    707  MOH           4544 ****               0 ****  **** 
    708  MOH           4550 ****               0 ****  **** 
    709  MOH           4556 ****               0 ****  **** 
    710  MOH           4562 ****               0 ****  **** 
    711  MOH           4568 ****               0 ****  **** 
    712  MOH           4574 ****               0 ****  **** 
    713  MOH           4580 ****               0 ****  **** 
    714  MOH           4586 ****               0 ****  **** 
    715  MOH           4592 ****               0 ****  **** 
    716  MOH           4598 ****               0 ****  **** 
    717  MOH           4604 ****               0 ****  **** 
    718  MOH           4610 ****               0 ****  **** 
    719  MOH           4616 ****               0 ****  **** 
    720  MOH           4622 ****               0 ****  **** 
    721  MOH           4628 ****               0 ****  **** 
    722  MOH           4634 ****               0 ****  **** 
    723  MOH           4640 ****               0 ****  **** 
    724  MOH           4646 ****               0 ****  **** 
    725  MOH           4652 ****               0 ****  **** 
    726  MOH           4658 ****               0 ****  **** 
    727  MOH           4664 ****               0 ****  **** 
    728  MOH           4670 ****               0 ****  **** 
    729  MOH           4676 ****               0 ****  **** 
    730  MOH           4682 ****               0 ****  **** 
    731  MOH           4688 ****               0 ****  **** 
    732  MOH           4694 ****               0 ****  **** 
    733  MOH           4700 ****               0 ****  **** 
    734  MOH           4706 ****               0 ****  **** 
    735  MOH           4712 ****               0 ****  **** 
    736  MOH           4718 ****               0 ****  **** 
    737  MOH           4724 ****               0 ****  **** 
    738  MOH           4730 ****               0 ****  **** 
    739  MOH           4736 ****               0 ****  **** 
    740  MOH           4742 ****               0 ****  **** 
    741  MOH           4748 ****               0 ****  **** 
    742  MOH           4754 ****               0 ****  **** 
    743  MOH           4760 ****               0 ****  **** 
    744  MOH           4766 ****               0 ****  **** 
    745  MOH           4772 ****               0 ****  **** 
    746  MOH           4778 ****               0 ****  **** 
    747  MOH           4784 ****               0 ****  **** 
    748  MOH           4790 ****               0 ****  **** 
    749  MOH           4796 ****               0 ****  **** 
    750  MOH           4802 ****               0 ****  **** 
    751  MOH           4808 ****               0 ****  **** 
    752  MOH           4814 ****               0 ****  **** 
    753  MOH           4820 ****               0 ****  **** 
    754  MOH           4826 ****               0 ****  **** 
    755  MOH           4832 ****               0 ****  **** 
    756  MOH           4838 ****               0 ****  **** 
    757  MOH           4844 ****               0 ****  **** 
    758  MOH           4850 ****               0 ****  **** 
    759  MOH           4856 ****               0 ****  **** 
    760  MOH           4862 ****               0 ****  **** 
    761  MOH           4868 ****               0 ****  **** 
    762  MOH           4874 ****               0 ****  **** 
    763  MOH           4880 ****               0 ****  **** 
    764  MOH           4886 ****               0 ****  **** 
    765  MOH           4892 ****               0 ****  **** 
    766  MOH           4898 ****               0 ****  **** 
    767  MOH           4904 ****               0 ****  **** 
    768  MOH           4910 ****               0 ****  **** 
    769  MOH           4916 ****               0 ****  **** 
    770  MOH           4922 ****               0 ****  **** 
    771  MOH           4928 ****               0 ****  **** 
    772  MOH           4934 ****               0 ****  **** 
    773  MOH           4940 ****               0 ****  **** 
    774  MOH           4946 ****               0 ****  **** 
    775  MOH           4952 ****               0 ****  **** 
    776  MOH           4958 ****               0 ****  **** 
    777  MOH           4964 ****               0 ****  **** 
    778  MOH           4970 ****               0 ****  **** 
    779  MOH           4976 ****               0 ****  **** 
    780  MOH           4982 ****               0 ****  **** 
    781  MOH           4988 ****               0 ****  **** 
    782  MOH           4994 ****               0 ****  **** 
    783  MOH           5000 ****               0 ****  **** 
    784  MOH           5006 ****               0 ****  **** 
    785  MOH           5012 ****               0 ****  **** 
    786  MOH           5018 ****               0 ****  **** 
    787  MOH           5024 ****               0 ****  **** 
    788  MOH           5030 ****               0 ****  **** 
    789  MOH           5036 ****               0 ****  **** 
    790  MOH           5042 ****               0 ****  **** 
    791  MOH           5048 ****               0 ****  **** 
    792  MOH           5054 ****               0 ****  **** 
    793  MOH           5060 ****               0 ****  **** 
    794  MOH           5066 ****               0 ****  **** 
    795  MOH           5072 ****               0 ****  **** 
    796  MOH           5078 ****               0 ****  **** 
    797  MOH           5084 ****               0 ****  **** 
    798  MOH           5090 ****               0 ****  **** 
    799  MOH           5096 ****               0 ****  **** 
    800  MOH           5102 ****               0 ****  **** 
    801  MOH           5108 ****               0 ****  **** 
    802  MOH           5114 ****               0 ****  **** 
    803  MOH           5120 ****               0 ****  **** 
    804  MOH           5126 ****               0 ****  **** 
    805  MOH           5132 ****               0 ****  **** 
    806  MOH           5138 ****               0 ****  **** 
    807  MOH           5144 ****               0 ****  **** 
    808  MOH           5150 ****               0 ****  **** 
    809  MOH           5156 ****               0 ****  **** 
    810  MOH           5162 ****               0 ****  **** 
    811  MOH           5168 ****               0 ****  **** 
    812  MOH           5174 ****               0 ****  **** 
    813  MOH           5180 ****               0 ****  **** 
    814  MOH           5186 ****               0 ****  **** 
    815  MOH           5192 ****               0 ****  **** 
    816  MOH           5198 ****               0 ****  **** 
    817  MOH           5204 ****               0 ****  **** 
    818  MOH           5210 ****               0 ****  **** 
    819  MOH           5216 ****               0 ****  **** 
    820  MOH           5222 ****               0 ****  **** 
    821  MOH           5228 ****               0 ****  **** 
    822  MOH           5234 ****               0 ****  **** 
    823  MOH           5240 ****               0 ****  **** 
    824  MOH           5246 ****               0 ****  **** 
    825  MOH           5252 ****               0 ****  **** 
    826  MOH           5258 ****               0 ****  **** 
    827  MOH           5264 ****               0 ****  **** 
    828  MOH           5270 ****               0 ****  **** 
    829  MOH           5276 ****               0 ****  **** 
    830  MOH           5282 ****               0 ****  **** 
    831  MOH           5288 ****               0 ****  **** 
    832  MOH           5294 ****               0 ****  **** 
    833  MOH           5300 ****               0 ****  **** 
    834  MOH           5306 ****               0 ****  **** 
    835  MOH           5312 ****               0 ****  **** 
    836  MOH           5318 ****               0 ****  **** 
    837  MOH           5324 ****               0 ****  **** 
    838  MOH           5330 ****               0 ****  **** 
    839  MOH           5336 ****               0 ****  **** 
    840  MOH           5342 ****               0 ****  **** 
    841  MOH           5348 ****               0 ****  **** 
    842  MOH           5354 ****               0 ****  **** 
    843  MOH           5360 ****               0 ****  **** 
    844  MOH           5366 ****               0 ****  **** 
    845  MOH           5372 ****               0 ****  **** 
    846  MOH           5378 ****               0 ****  **** 
    847  MOH           5384 ****               0 ****  **** 
    848  MOH           5390 ****               0 ****  **** 
    849  MOH           5396 ****               0 ****  **** 
    850  MOH           5402 ****               0 ****  **** 
    851  MOH           5408 ****               0 ****  **** 
    852  MOH           5414 ****               0 ****  **** 
    853  MOH           5420 ****               0 ****  **** 
    854  MOH           5426 ****               0 ****  **** 
    855  MOH           5432 ****               0 ****  **** 
    856  MOH           5438 ****               0 ****  **** 
    857  MOH           5444 ****               0 ****  **** 
    858  MOH           5450 ****               0 ****  **** 
    859  MOH           5456 ****               0 ****  **** 
    860  MOH           5462 ****               0 ****  **** 
    861  MOH           5468 ****               0 ****  **** 
    862  MOH           5474 ****               0 ****  **** 
    863  MOH           5480 ****               0 ****  **** 
    864  MOH           5486 ****               0 ****  **** 
    865  MOH           5492 ****               0 ****  **** 
    866  MOH           5498 ****               0 ****  **** 
    867  MOH           5504 ****               0 ****  **** 
    868  MOH           5510 ****               0 ****  **** 
    869  MOH           5516 ****               0 ****  **** 
    870  MOH           5522 ****               0 ****  **** 
    871  MOH           5528 ****               0 ****  **** 
    872  MOH           5534 ****               0 ****  **** 
    873  MOH           5540 ****               0 ****  **** 
    874  MOH           5546 ****               0 ****  **** 
    875  MOH           5552 ****               0 ****  **** 
    876  MOH           5558 ****               0 ****  **** 
    877  MOH           5564 ****               0 ****  **** 
    878  MOH           5570 ****               0 ****  **** 
    879  MOH           5576 ****               0 ****  **** 
    880  MOH           5582 ****               0 ****  **** 
    881  MOH           5588 ****               0 ****  **** 
    882  MOH           5594 ****               0 ****  **** 
    883  MOH           5600 ****               0 ****  **** 
    884  MOH           5606 ****               0 ****  **** 
    885  MOH           5612 ****               0 ****  **** 
    886  MOH           5618 ****               0 ****  **** 
    887  MOH           5624 ****               0 ****  **** 
    888  MOH           5630 ****               0 ****  **** 
    889  MOH           5636 ****               0 ****  **** 
    890  MOH           5642 ****               0 ****  **** 
    891  MOH           5648 ****               0 ****  **** 
    892  MOH           5654 ****               0 ****  **** 
    893  MOH           5660 ****               0 ****  **** 
    894  MOH           5666 ****               0 ****  **** 
    895  MOH           5672 ****               0 ****  **** 
    896  MOH           5678 ****               0 ****  **** 
    897  MOH           5684 ****               0 ****  **** 
    898  MOH           5690 ****               0 ****  **** 
    899  MOH           5696 ****               0 ****  **** 
    900  MOH           5702 ****               0 ****  **** 
    901  MOH           5708 ****               0 ****  **** 
    902  MOH           5714 ****               0 ****  **** 
    903  MOH           5720 ****               0 ****  **** 
    904  MOH           5726 ****               0 ****  **** 
    905  MOH           5732 ****               0 ****  **** 
    906  MOH           5738 ****               0 ****  **** 
    907  MOH           5744 ****               0 ****  **** 
    908  MOH           5750 ****               0 ****  **** 
    909  MOH           5756 ****               0 ****  **** 
    910  MOH           5762 ****               0 ****  **** 
    911  MOH           5768 ****               0 ****  **** 
    912  MOH           5774 ****               0 ****  **** 
    913  MOH           5780 ****               0 ****  **** 
    914  MOH           5786 ****               0 ****  **** 
    915  MOH           5792 ****               0 ****  **** 
    916  MOH           5798 ****               0 ****  **** 
    917  MOH           5804 ****               0 ****  **** 
    918  MOH           5810 ****               0 ****  **** 
    919  MOH           5816 ****               0 ****  **** 
    920  MOH           5822 ****               0 ****  **** 
    921  MOH           5828 ****               0 ****  **** 
    922  MOH           5834 ****               0 ****  **** 
    923  MOH           5840 ****               0 ****  **** 
    924  MOH           5846 ****               0 ****  **** 
    925  MOH           5852 ****               0 ****  **** 
    926  MOH           5858 ****               0 ****  **** 
    927  MOH           5864 ****               0 ****  **** 
    928  MOH           5870 ****               0 ****  **** 
    929  MOH           5876 ****               0 ****  **** 
    930  MOH           5882 ****               0 ****  **** 
    931  MOH           5888 ****               0 ****  **** 
    932  MOH           5894 ****               0 ****  **** 
    933  MOH           5900 ****               0 ****  **** 
    934  MOH           5906 ****               0 ****  **** 
    935  MOH           5912 ****               0 ****  **** 
    936  MOH           5918 ****               0 ****  **** 
    937  MOH           5924 ****               0 ****  **** 
    938  MOH           5930 ****               0 ****  **** 
    939  MOH           5936 ****               0 ****  **** 
    940  MOH           5942 ****               0 ****  **** 
    941  MOH           5948 ****               0 ****  **** 
    942  MOH           5954 ****               0 ****  **** 
    943  MOH           5960 ****               0 ****  **** 
    944  MOH           5966 ****               0 ****  **** 
    945  MOH           5972 ****               0 ****  **** 
    946  MOH           5978 ****               0 ****  **** 
    947  MOH           5984 ****               0 ****  **** 
    948  MOH           5990 ****               0 ****  **** 
    949  MOH           5996 ****               0 ****  **** 
    950  MOH           6002 ****               0 ****  **** 
    951  MOH           6008 ****               0 ****  **** 
    952  MOH           6014 ****               0 ****  **** 
    953  MOH           6020 ****               0 ****  **** 
    954  MOH           6026 ****               0 ****  **** 
    955  MOH           6032 ****               0 ****  **** 
    956  MOH           6038 ****               0 ****  **** 
    957  MOH           6044 ****               0 ****  **** 
    958  MOH           6050 ****               0 ****  **** 
    959  MOH           6056 ****               0 ****  **** 
    960  MOH           6062 ****               0 ****  **** 
    961  MOH           6068 ****               0 ****  **** 
    962  MOH           6074 ****               0 ****  **** 
    963  MOH           6080 ****               0 ****  **** 
    964  MOH           6086 ****               0 ****  **** 
    965  MOH           6092 ****               0 ****  **** 
    966  MOH           6098 ****               0 ****  **** 
    967  MOH           6104 ****               0 ****  **** 
    968  MOH           6110 ****               0 ****  **** 
    969  MOH           6116 ****               0 ****  **** 
    970  MOH           6122 ****               0 ****  **** 
    971  MOH           6128 ****               0 ****  **** 
    972  MOH           6134 ****               0 ****  **** 
    973  MOH           6140 ****               0 ****  **** 
    974  MOH           6146 ****               0 ****  **** 
    975  MOH           6152 ****               0 ****  **** 
    976  MOH           6158 ****               0 ****  **** 
    977  MOH           6164 ****               0 ****  **** 
    978  MOH           6170 ****               0 ****  **** 
    979  MOH           6176 ****               0 ****  **** 
    980  MOH           6182 ****               0 ****  **** 
    981  MOH           6188 ****               0 ****  **** 
    982  MOH           6194 ****               0 ****  **** 
    983  MOH           6200 ****               0 ****  **** 
    984  MOH           6206 ****               0 ****  **** 
    985  MOH           6212 ****               0 ****  **** 
    986  MOH           6218 ****               0 ****  **** 
    987  MOH           6224 ****               0 ****  **** 
    988  MOH           6230 ****               0 ****  **** 
    989  MOH           6236 ****               0 ****  **** 
    990  MOH           6242 ****               0 ****  **** 
    991  MOH           6248 ****               0 ****  **** 
    992  MOH           6254 ****               0 ****  **** 
    993  MOH           6260 ****               0 ****  **** 
    994  MOH           6266 ****               0 ****  **** 
    995  MOH           6272 ****               0 ****  **** 
    996  MOH           6278 ****               0 ****  **** 
    997  MOH           6284 ****               0 ****  **** 
    998  MOH           6290 ****               0 ****  **** 
    999  MOH           6296 ****               0 ****  **** 
   1000  MOH           6302 ****               0 ****  **** 
   1001  MOH           6308 ****               0 ****  **** 
   1002  MOH           6314 ****               0 ****  **** 
   1003  MOH           6320 ****               0 ****  **** 
   1004  MOH           6326 ****               0 ****  **** 
   1005  MOH           6332 ****               0 ****  **** 
   1006  MOH           6338 ****               0 ****  **** 
   1007  MOH           6344 ****               0 ****  **** 
   1008  MOH           6350 ****               0 ****  **** 
   1009  MOH           6356 ****               0 ****  **** 
   1010  MOH           6362 ****               0 ****  **** 
   1011  MOH           6368 ****               0 ****  **** 
   1012  MOH           6374 ****               0 ****  **** 
   1013  MOH           6380 ****               0 ****  **** 
   1014  MOH           6386 ****               0 ****  **** 
   1015  MOH           6392 ****               0 ****  **** 
   1016  MOH           6398 ****               0 ****  **** 
   1017  MOH           6404 ****               0 ****  **** 
   1018  MOH           6410 ****               0 ****  **** 
   1019  MOH           6416 ****               0 ****  **** 
   1020  MOH           6422 ****               0 ****  **** 
   1021  MOH           6428 ****               0 ****  **** 
   1022  MOH           6434 ****               0 ****  **** 
   1023  MOH           6440 ****               0 ****  **** 
   1024  MOH           6446 ****               0 ****  **** 
   1025  MOH           6452 ****               0 ****  **** 
   1026  MOH           6458 ****               0 ****  **** 
   1027  MOH           6464 ****               0 ****  **** 
   1028  MOH           6470 ****               0 ****  **** 
   1029  MOH           6476 ****               0 ****  **** 
   1030  MOH           6482 ****               0 ****  **** 
   1031  MOH           6488 ****               0 ****  **** 
   1032  MOH           6494 ****               0 ****  **** 
   1033  MOH           6500 ****               0 ****  **** 
   1034  MOH           6506 ****               0 ****  **** 
   1035  MOH           6512 ****               0 ****  **** 
   1036  MOH           6518 ****               0 ****  **** 
   1037  MOH           6524 ****               0 ****  **** 
   1038  MOH           6530 ****               0 ****  **** 
   1039  MOH           6536 ****               0 ****  **** 
   1040  MOH           6542 ****               0 ****  **** 
   1041  MOH           6548 ****               0 ****  **** 
   1042  MOH           6554 ****               0 ****  **** 
   1043  MOH           6560 ****               0 ****  **** 
   1044  MOH           6566 ****               0 ****  **** 
   1045  MOH           6572 ****               0 ****  **** 
   1046  MOH           6578 ****               0 ****  **** 
   1047  MOH           6584 ****               0 ****  **** 
   1048  MOH           6590 ****               0 ****  **** 
   1049  MOH           6596 ****               0 ****  **** 
   1050  MOH           6602 ****               0 ****  **** 
   1051  MOH           6608 ****               0 ****  **** 
   1052  MOH           6614 ****               0 ****  **** 
   1053  MOH           6620 ****               0 ****  **** 
   1054  MOH           6626 ****               0 ****  **** 
   1055  MOH           6632 ****               0 ****  **** 
   1056  MOH           6638 ****               0 ****  **** 
   1057  MOH           6644 ****               0 ****  **** 
   1058  MOH           6650 ****               0 ****  **** 
   1059  MOH           6656 ****               0 ****  **** 
   1060  MOH           6662 ****               0 ****  **** 
   1061  MOH           6668 ****               0 ****  **** 
   1062  MOH           6674 ****               0 ****  **** 
   1063  MOH           6680 ****               0 ****  **** 
   1064  MOH           6686 ****               0 ****  **** 
   1065  MOH           6692 ****               0 ****  **** 
   1066  MOH           6698 ****               0 ****  **** 
   1067  MOH           6704 ****               0 ****  **** 
   1068  MOH           6710 ****               0 ****  **** 
   1069  MOH           6716 ****               0 ****  **** 
   1070  MOH           6722 ****               0 ****  **** 
   1071  MOH           6728 ****               0 ****  **** 
   1072  MOH           6734 ****               0 ****  **** 
   1073  MOH           6740 ****               0 ****  **** 
   1074  MOH           6746 ****               0 ****  **** 
   1075  MOH           6752 ****               0 ****  **** 
   1076  MOH           6758 ****               0 ****  **** 
   1077  MOH           6764 ****               0 ****  **** 
   1078  MOH           6770 ****               0 ****  **** 
   1079  MOH           6776 ****               0 ****  **** 
   1080  MOH           6782 ****               0 ****  **** 
   1081  MOH           6788 ****               0 ****  **** 
   1082  MOH           6794 ****               0 ****  **** 
   1083  MOH           6800 ****               0 ****  **** 
   1084  MOH           6806 ****               0 ****  **** 
   1085  MOH           6812 ****               0 ****  **** 
   1086  MOH           6818 ****               0 ****  **** 
   1087  MOH           6824 ****               0 ****  **** 
   1088  MOH           6830 ****               0 ****  **** 
   1089  MOH           6836 ****               0 ****  **** 
   1090  MOH           6842 ****               0 ****  **** 
   1091  MOH           6848 ****               0 ****  **** 
   1092  MOH           6854 ****               0 ****  **** 
   1093  MOH           6860 ****               0 ****  **** 
   1094  MOH           6866 ****               0 ****  **** 
   1095  MOH           6872 ****               0 ****  **** 
   1096  MOH           6878 ****               0 ****  **** 
   1097  MOH           6884 ****               0 ****  **** 
   1098  MOH           6890 ****               0 ****  **** 
   1099  MOH           6896 ****               0 ****  **** 
   1100  MOH           6902 ****               0 ****  **** 
   1101  MOH           6908 ****               0 ****  **** 
   1102  MOH           6914 ****               0 ****  **** 
   1103  MOH           6920 ****               0 ****  **** 
   1104  MOH           6926 ****               0 ****  **** 
   1105  MOH           6932 ****               0 ****  **** 
   1106  MOH           6938 ****               0 ****  **** 
   1107  MOH           6944 ****               0 ****  **** 
   1108  MOH           6950 ****               0 ****  **** 
   1109  MOH           6956 ****               0 ****  **** 
   1110  MOH           6962 ****               0 ****  **** 
   1111  MOH           6968 ****               0 ****  **** 
   1112  MOH           6974 ****               0 ****  **** 
   1113  MOH           6980 ****               0 ****  **** 
   1114  MOH           6986 ****               0 ****  **** 
   1115  MOH           6992 ****               0 ****  **** 
   1116  MOH           6998 ****               0 ****  **** 
   1117  MOH           7004 ****               0 ****  **** 
   1118  MOH           7010 ****               0 ****  **** 
   1119  MOH           7016 ****               0 ****  **** 
   1120  MOH           7022 ****               0 ****  **** 
   1121  MOH           7028 ****               0 ****  **** 
   1122  MOH           7034 ****               0 ****  **** 
   1123  MOH           7040 ****               0 ****  **** 
   1124  MOH           7046 ****               0 ****  **** 
   1125  MOH           7052 ****               0 ****  **** 
   1126  MOH           7058 ****               0 ****  **** 
   1127  MOH           7064 ****               0 ****  **** 
   1128  MOH           7070 ****               0 ****  **** 
   1129  MOH           7076 ****               0 ****  **** 
   1130  MOH           7082 ****               0 ****  **** 
   1131  MOH           7088 ****               0 ****  **** 
   1132  MOH           7094 ****               0 ****  **** 
   1133  MOH           7100 ****               0 ****  **** 
   1134  MOH           7106 ****               0 ****  **** 
   1135  MOH           7112 ****               0 ****  **** 
   1136  MOH           7118 ****               0 ****  **** 
   1137  MOH           7124 ****               0 ****  **** 
   1138  MOH           7130 ****               0 ****  **** 
   1139  MOH           7136 ****               0 ****  **** 
   1140  MOH           7142 ****               0 ****  **** 
   1141  MOH           7148 ****               0 ****  **** 
   1142  MOH           7154 ****               0 ****  **** 
   1143  MOH           7160 ****               0 ****  **** 
   1144  MOH           7166 ****               0 ****  **** 
   1145  MOH           7172 ****               0 ****  **** 
   1146  MOH           7178 ****               0 ****  **** 
   1147  MOH           7184 ****               0 ****  **** 
   1148  MOH           7190 ****               0 ****  **** 
   1149  MOH           7196 ****               0 ****  **** 
   1150  MOH           7202 ****               0 ****  **** 
   1151  MOH           7208 ****               0 ****  **** 
   1152  MOH           7214 ****               0 ****  **** 
   1153  MOH           7220 ****               0 ****  **** 
   1154  MOH           7226 ****               0 ****  **** 
   1155  MOH           7232 ****               0 ****  **** 
   1156  MOH           7238 ****               0 ****  **** 
   1157  MOH           7244 ****               0 ****  **** 
   1158  MOH           7250 ****               0 ****  **** 
   1159  MOH           7256 ****               0 ****  **** 
   1160  MOH           7262 ****               0 ****  **** 
   1161  MOH           7268 ****               0 ****  **** 
   1162  MOH           7274 ****               0 ****  **** 
   1163  MOH           7280 ****               0 ****  **** 
   1164  MOH           7286 ****               0 ****  **** 
   1165  MOH           7292 ****               0 ****  **** 
   1166  MOH           7298 ****               0 ****  **** 
   1167  MOH           7304 ****               0 ****  **** 
   1168  MOH           7310 ****               0 ****  **** 
   1169  MOH           7316 ****               0 ****  **** 
   1170  MOH           7322 ****               0 ****  **** 
   1171  MOH           7328 ****               0 ****  **** 
   1172  MOH           7334 ****               0 ****  **** 
   1173  MOH           7340 ****               0 ****  **** 
   1174  MOH           7346 ****               0 ****  **** 
   1175  MOH           7352 ****               0 ****  **** 
   1176  MOH           7358 ****               0 ****  **** 
   1177  MOH           7364 ****               0 ****  **** 
   1178  MOH           7370 ****               0 ****  **** 
   1179  MOH           7376 ****               0 ****  **** 
   1180  MOH           7382 ****               0 ****  **** 
   1181  MOH           7388 ****               0 ****  **** 
   1182  MOH           7394 ****               0 ****  **** 
   1183  MOH           7400 ****               0 ****  **** 
   1184  MOH           7406 ****               0 ****  **** 
   1185  MOH           7412 ****               0 ****  **** 
   1186  MOH           7418 ****               0 ****  **** 
   1187  MOH           7424 ****               0 ****  **** 
   1188  MOH           7430 ****               0 ****  **** 
   1189  MOH           7436 ****               0 ****  **** 
   1190  MOH           7442 ****               0 ****  **** 
   1191  MOH           7448 ****               0 ****  **** 
   1192  MOH           7454 ****               0 ****  **** 
   1193  MOH           7460 ****               0 ****  **** 
   1194  MOH           7466 ****               0 ****  **** 
   1195  MOH           7472 ****               0 ****  **** 
   1196  MOH           7478 ****               0 ****  **** 
   1197  MOH           7484 ****               0 ****  **** 
   1198  MOH           7490 ****               0 ****  **** 
   1199  MOH           7496 ****               0 ****  **** 
   1200  MOH           7502 ****               0 ****  **** 
   1201  MOH           7508 ****               0 ****  **** 
   1202  MOH           7514 ****               0 ****  **** 
   1203  MOH           7520 ****               0 ****  **** 
   1204  MOH           7526 ****               0 ****  **** 
   1205  MOH           7532 ****               0 ****  **** 
   1206  MOH           7538 ****               0 ****  **** 
   1207  MOH           7544 ****               0 ****  **** 
   1208  MOH           7550 ****               0 ****  **** 
   1209  MOH           7556 ****               0 ****  **** 
   1210  MOH           7562 ****               0 ****  **** 
   1211  MOH           7568 ****               0 ****  **** 
   1212  MOH           7574 ****               0 ****  **** 
   1213  MOH           7580 ****               0 ****  **** 
   1214  MOH           7586 ****               0 ****  **** 
   1215  MOH           7592 ****               0 ****  **** 
   1216  MOH           7598 ****               0 ****  **** 
   1217  MOH           7604 ****               0 ****  **** 
   1218  MOH           7610 ****               0 ****  **** 
   1219  MOH           7616 ****               0 ****  **** 
   1220  MOH           7622 ****               0 ****  **** 
   1221  MOH           7628 ****               0 ****  **** 
   1222  MOH           7634 ****               0 ****  **** 
   1223  MOH           7640 ****               0 ****  **** 
   1224  MOH           7646 ****               0 ****  **** 
   1225  MOH           7652 ****               0 ****  **** 
   1226  MOH           7658 ****               0 ****  **** 
   1227  MOH           7664 ****               0 ****  **** 
   1228  MOH           7670 ****               0 ****  **** 
   1229  MOH           7676 ****               0 ****  **** 
   1230  MOH           7682 ****               0 ****  **** 
   1231  MOH           7688 ****               0 ****  **** 
   1232  MOH           7694 ****               0 ****  **** 
   1233  MOH           7700 ****               0 ****  **** 
   1234  MOH           7706 ****               0 ****  **** 
   1235  MOH           7712 ****               0 ****  **** 
   1236  MOH           7718 ****               0 ****  **** 
   1237  MOH           7724 ****               0 ****  **** 
   1238  MOH           7730 ****               0 ****  **** 
   1239  MOH           7736 ****               0 ****  **** 
   1240  MOH           7742 ****               0 ****  **** 
   1241  MOH           7748 ****               0 ****  **** 
   1242  MOH           7754 ****               0 ****  **** 
   1243  MOH           7760 ****               0 ****  **** 
   1244  MOH           7766 ****               0 ****  **** 
   1245  MOH           7772 ****               0 ****  **** 
   1246  MOH           7778 ****               0 ****  **** 
   1247  MOH           7784 ****               0 ****  **** 
   1248  MOH           7790 ****               0 ****  **** 
   1249  MOH           7796 ****               0 ****  **** 
   1250  MOH           7802 ****               0 ****  **** 
   1251  MOH           7808 ****               0 ****  **** 
   1252  MOH           7814 ****               0 ****  **** 
   1253  MOH           7820 ****               0 ****  **** 
   1254  MOH           7826 ****               0 ****  **** 
   1255  MOH           7832 ****               0 ****  **** 
   1256  MOH           7838 ****               0 ****  **** 
   1257  MOH           7844 ****               0 ****  **** 
   1258  MOH           7850 ****               0 ****  **** 
   1259  MOH           7856 ****               0 ****  **** 
   1260  MOH           7862 ****               0 ****  **** 
   1261  MOH           7868 ****               0 ****  **** 
   1262  MOH           7874 ****               0 ****  **** 
   1263  MOH           7880 ****               0 ****  **** 
   1264  MOH           7886 ****               0 ****  **** 
   1265  MOH           7892 ****               0 ****  **** 
   1266  MOH           7898 ****               0 ****  **** 
   1267  MOH           7904 ****               0 ****  **** 
   1268  MOH           7910 ****               0 ****  **** 
   1269  MOH           7916 ****               0 ****  **** 
   1270  MOH           7922 ****               0 ****  **** 
   1271  MOH           7928 ****               0 ****  **** 
   1272  MOH           7934 ****               0 ****  **** 
   1273  MOH           7940 ****               0 ****  **** 
   1274  MOH           7946 ****               0 ****  **** 
   1275  MOH           7952 ****               0 ****  **** 
   1276  MOH           7958 ****               0 ****  **** 
   1277  MOH           7964 ****               0 ****  **** 
   1278  MOH           7970 ****               0 ****  **** 
   1279  MOH           7976 ****               0 ****  **** 
   1280  MOH           7982 ****               0 ****  **** 
   1281  MOH           7988 ****               0 ****  **** 
   1282  MOH           7994 ****               0 ****  **** 
   1283  MOH           8000 ****               0 ****  **** 
   1284  MOH           8006 ****               0 ****  **** 
   1285  MOH           8012 ****               0 ****  **** 
   1286  MOH           8018 ****               0 ****  **** 
   1287  MOH           8024 ****               0 ****  **** 
   1288  MOH           8030 ****               0 ****  **** 
   1289  MOH           8036 ****               0 ****  **** 
   1290  MOH           8042 ****               0 ****  **** 
   1291  MOH           8048 ****               0 ****  **** 
   1292  MOH           8054 ****               0 ****  **** 
   1293  MOH           8060 ****               0 ****  **** 
   1294  MOH           8066 ****               0 ****  **** 
   1295  MOH           8072 ****               0 ****  **** 
   1296  MOH           8078 ****               0 ****  **** 
   1297  MOH           8084 ****               0 ****  **** 
   1298  MOH           8090 ****               0 ****  **** 
   1299  MOH           8096 ****               0 ****  **** 
   1300  MOH           8102 ****               0 ****  **** 
   1301  MOH           8108 ****               0 ****  **** 
   1302  MOH           8114 ****               0 ****  **** 
   1303  MOH           8120 ****               0 ****  **** 
   1304  MOH           8126 ****               0 ****  **** 
   1305  MOH           8132 ****               0 ****  **** 
   1306  MOH           8138 ****               0 ****  **** 
   1307  MOH           8144 ****               0 ****  **** 
   1308  MOH           8150 ****               0 ****  **** 
   1309  MOH           8156 ****               0 ****  **** 
   1310  MOH           8162 ****               0 ****  **** 
   1311  MOH           8168 ****               0 ****  **** 
   1312  MOH           8174 ****               0 ****  **** 
   1313  MOH           8180 ****               0 ****  **** 
   1314  MOH           8186 ****               0 ****  **** 
   1315  MOH           8192 ****               0 ****  **** 
   1316  MOH           8198 ****               0 ****  **** 
   1317  MOH           8204 ****               0 ****  **** 
   1318  MOH           8210 ****               0 ****  **** 
   1319  MOH           8216 ****               0 ****  **** 
   1320  MOH           8222 ****               0 ****  **** 
   1321  MOH           8228 ****               0 ****  **** 
   1322  MOH           8234 ****               0 ****  **** 
   1323  MOH           8240 ****               0 ****  **** 
   1324  MOH           8246 ****               0 ****  **** 
   1325  MOH           8252 ****               0 ****  **** 
   1326  MOH           8258 ****               0 ****  **** 
   1327  MOH           8264 ****               0 ****  **** 
   1328  MOH           8270 ****               0 ****  **** 
   1329  MOH           8276 ****               0 ****  **** 
   1330  MOH           8282 ****               0 ****  **** 
   1331  MOH           8288 ****               0 ****  **** 
   1332  MOH           8294 ****               0 ****  **** 
   1333  MOH           8300 ****               0 ****  **** 
   1334  MOH           8306 ****               0 ****  **** 
   1335  MOH           8312 ****               0 ****  **** 
   1336  MOH           8318 ****               0 ****  **** 
   1337  MOH           8324 ****               0 ****  **** 
   1338  MOH           8330 ****               0 ****  **** 
   1339  MOH           8336 ****               0 ****  **** 
   1340  MOH           8342 ****               0 ****  **** 
   1341  MOH           8348 ****               0 ****  **** 
   1342  MOH           8354 ****               0 ****  **** 
   1343  MOH           8360 ****               0 ****  **** 
   1344  MOH           8366 ****               0 ****  **** 
   1345  MOH           8372 ****               0 ****  **** 
   1346  MOH           8378 ****               0 ****  **** 
   1347  MOH           8384 ****               0 ****  **** 
   1348  MOH           8390 ****               0 ****  **** 
   1349  MOH           8396 ****               0 ****  **** 
   1350  MOH           8402 ****               0 ****  **** 
   1351  MOH           8408 ****               0 ****  **** 
   1352  MOH           8414 ****               0 ****  **** 
   1353  MOH           8420 ****               0 ****  **** 
   1354  MOH           8426 ****               0 ****  **** 
   1355  MOH           8432 ****               0 ****  **** 
   1356  MOH           8438 ****               0 ****  **** 
   1357  MOH           8444 ****               0 ****  **** 
   1358  MOH           8450 ****               0 ****  **** 
   1359  MOH           8456 ****               0 ****  **** 
   1360  MOH           8462 ****               0 ****  **** 
   1361  MOH           8468 ****               0 ****  **** 
   1362  MOH           8474 ****               0 ****  **** 
   1363  MOH           8480 ****               0 ****  **** 
   1364  MOH           8486 ****               0 ****  **** 
   1365  MOH           8492 ****               0 ****  **** 
   1366  MOH           8498 ****               0 ****  **** 
   1367  MOH           8504 ****               0 ****  **** 
   1368  MOH           8510 ****               0 ****  **** 
   1369  MOH           8516 ****               0 ****  **** 
   1370  MOH           8522 ****               0 ****  **** 
   1371  MOH           8528 ****               0 ****  **** 
   1372  MOH           8534 ****               0 ****  **** 
   1373  MOH           8540 ****               0 ****  **** 
   1374  MOH           8546 ****               0 ****  **** 
   1375  MOH           8552 ****               0 ****  **** 
   1376  MOH           8558 ****               0 ****  **** 
   1377  MOH           8564 ****               0 ****  **** 
   1378  MOH           8570 ****               0 ****  **** 
   1379  MOH           8576 ****               0 ****  **** 
   1380  MOH           8582 ****               0 ****  **** 
   1381  MOH           8588 ****               0 ****  **** 
   1382  MOH           8594 ****               0 ****  **** 
   1383  MOH           8600 ****               0 ****  **** 
   1384  MOH           8606 ****               0 ****  **** 
   1385  MOH           8612 ****               0 ****  **** 
   1386  MOH           8618 ****               0 ****  **** 
   1387  MOH           8624 ****               0 ****  **** 
   1388  MOH           8630 ****               0 ****  **** 
   1389  MOH           8636 ****               0 ****  **** 
   1390  MOH           8642 ****               0 ****  **** 
   1391  MOH           8648 ****               0 ****  **** 
   1392  MOH           8654 ****               0 ****  **** 
   1393  MOH           8660 ****               0 ****  **** 
   1394  MOH           8666 ****               0 ****  **** 
   1395  MOH           8672 ****               0 ****  **** 
   1396  MOH           8678 ****               0 ****  **** 
   1397  MOH           8684 ****               0 ****  **** 
   1398  MOH           8690 ****               0 ****  **** 
   1399  MOH           8696 ****               0 ****  **** 
   1400  MOH           8702 ****               0 ****  **** 
   1401  MOH           8708 ****               0 ****  **** 
   1402  MOH           8714 ****               0 ****  **** 
   1403  MOH           8720 ****               0 ****  **** 
   1404  MOH           8726 ****               0 ****  **** 
   1405  MOH           8732 ****               0 ****  **** 
   1406  MOH           8738 ****               0 ****  **** 
   1407  MOH           8744 ****               0 ****  **** 
   1408  MOH           8750 ****               0 ****  **** 
   1409  MOH           8756 ****               0 ****  **** 
   1410  MOH           8762 ****               0 ****  **** 
   1411  MOH           8768 ****               0 ****  **** 
   1412  MOH           8774 ****               0 ****  **** 
   1413  MOH           8780 ****               0 ****  **** 
   1414  MOH           8786 ****               0 ****  **** 
   1415  MOH           8792 ****               0 ****  **** 
   1416  MOH           8798 ****               0 ****  **** 
   1417  MOH           8804 ****               0 ****  **** 
   1418  MOH           8810 ****               0 ****  **** 
   1419  MOH           8816 ****               0 ****  **** 
   1420  MOH           8822 ****               0 ****  **** 
   1421  MOH           8828 ****               0 ****  **** 
   1422  MOH           8834 ****               0 ****  **** 
   1423  MOH           8840 ****               0 ****  **** 
   1424  MOH           8846 ****               0 ****  **** 
   1425  MOH           8852 ****               0 ****  **** 
   1426  MOH           8858 ****               0 ****  **** 
   1427  MOH           8864 ****               0 ****  **** 
   1428  MOH           8870 ****               0 ****  **** 
   1429  MOH           8876 ****               0 ****  **** 
   1430  MOH           8882 ****               0 ****  **** 
   1431  MOH           8888 ****               0 ****  **** 
   1432  MOH           8894 ****               0 ****  **** 
   1433  MOH           8900 ****               0 ****  **** 
   1434  MOH           8906 ****               0 ****  **** 
   1435  MOH           8912 ****               0 ****  **** 
   1436  MOH           8918 ****               0 ****  **** 
   1437  MOH           8924 ****               0 ****  **** 
   1438  MOH           8930 ****               0 ****  **** 
   1439  MOH           8936 ****               0 ****  **** 
   1440  MOH           8942 ****               0 ****  **** 
   1441  MOH           8948 ****               0 ****  **** 
   1442  MOH           8954 ****               0 ****  **** 
   1443  MOH           8960 ****               0 ****  **** 
   1444  MOH           8966 ****               0 ****  **** 
   1445  MOH           8972 ****               0 ****  **** 
   1446  MOH           8978 ****               0 ****  **** 
   1447  MOH           8984 ****               0 ****  **** 
   1448  MOH           8990 ****               0 ****  **** 
   1449  MOH           8996 ****               0 ****  **** 
   1450  MOH           9002 ****               0 ****  **** 
   1451  MOH           9008 ****               0 ****  **** 
   1452  MOH           9014 ****               0 ****  **** 
   1453  MOH           9020 ****               0 ****  **** 
   1454  MOH           9026 ****               0 ****  **** 
   1455  MOH           9032 ****               0 ****  **** 
   1456  MOH           9038 ****               0 ****  **** 
   1457  MOH           9044 ****               0 ****  **** 
   1458  MOH           9050 ****               0 ****  **** 
   1459  MOH           9056 ****               0 ****  **** 
   1460  MOH           9062 ****               0 ****  **** 
   1461  MOH           9068 ****               0 ****  **** 
   1462  MOH           9074 ****               0 ****  **** 
   1463  MOH           9080 ****               0 ****  **** 
   1464  MOH           9086 ****               0 ****  **** 
   1465  MOH           9092 ****               0 ****  **** 
   1466  MOH           9098 ****               0 ****  **** 
   1467  MOH           9104 ****               0 ****  **** 
   1468  MOH           9110 ****               0 ****  **** 
   1469  MOH           9116 ****               0 ****  **** 
   1470  MOH           9122 ****               0 ****  **** 
   1471  MOH           9128 ****               0 ****  **** 
   1472  MOH           9134 ****               0 ****  **** 
   1473  MOH           9140 ****               0 ****  **** 
   1474  MOH           9146 ****               0 ****  **** 
   1475  MOH           9152 ****               0 ****  **** 
   1476  MOH           9158 ****               0 ****  **** 
   1477  MOH           9164 ****               0 ****  **** 
   1478  MOH           9170 ****               0 ****  **** 
   1479  MOH           9176 ****               0 ****  **** 
   1480  MOH           9182 ****               0 ****  **** 
   1481  MOH           9188 ****               0 ****  **** 
   1482  MOH           9194 ****               0 ****  **** 
   1483  MOH           9200 ****               0 ****  **** 
   1484  MOH           9206 ****               0 ****  **** 
   1485  MOH           9212 ****               0 ****  **** 
   1486  MOH           9218 ****               0 ****  **** 
   1487  MOH           9224 ****               0 ****  **** 
   1488  MOH           9230 ****               0 ****  **** 
   1489  MOH           9236 ****               0 ****  **** 
   1490  MOH           9242 ****               0 ****  **** 
   1491  MOH           9248 ****               0 ****  **** 
   1492  MOH           9254 ****               0 ****  **** 
   1493  MOH           9260 ****               0 ****  **** 
   1494  MOH           9266 ****               0 ****  **** 
   1495  MOH           9272 ****               0 ****  **** 
   1496  MOH           9278 ****               0 ****  **** 
   1497  MOH           9284 ****               0 ****  **** 
   1498  MOH           9290 ****               0 ****  **** 
   1499  MOH           9296 ****               0 ****  **** 
   1500  MOH           9302 ****               0 ****  **** 
   1501  MOH           9308 ****               0 ****  **** 
   1502  MOH           9314 ****               0 ****  **** 
   1503  MOH           9320 ****               0 ****  **** 
   1504  MOH           9326 ****               0 ****  **** 
   1505  MOH           9332 ****               0 ****  **** 
   1506  MOH           9338 ****               0 ****  **** 
   1507  MOH           9344 ****               0 ****  **** 
   1508  MOH           9350 ****               0 ****  **** 
   1509  MOH           9356 ****               0 ****  **** 
   1510  MOH           9362 ****               0 ****  **** 
   1511  MOH           9368 ****               0 ****  **** 
   1512  MOH           9374 ****               0 ****  **** 
   1513  MOH           9380 ****               0 ****  **** 
   1514  MOH           9386 ****               0 ****  **** 
   1515  MOH           9392 ****               0 ****  **** 
   1516  MOH           9398 ****               0 ****  **** 
   1517  MOH           9404 ****               0 ****  **** 
   1518  MOH           9410 ****               0 ****  **** 
   1519  MOH           9416 ****               0 ****  **** 
   1520  MOH           9422 ****               0 ****  **** 
   1521  MOH           9428 ****               0 ****  **** 
   1522  MOH           9434 ****               0 ****  **** 
   1523  MOH           9440 ****               0 ****  **** 
   1524  MOH           9446 ****               0 ****  **** 
   1525  MOH           9452 ****               0 ****  **** 
   1526  MOH           9458 ****               0 ****  **** 
   1527  MOH           9464 ****               0 ****  **** 
   1528  MOH           9470 ****               0 ****  **** 
   1529  MOH           9476 ****               0 ****  **** 
   1530  MOH           9482 ****               0 ****  **** 
   1531  MOH           9488 ****               0 ****  **** 
   1532  MOH           9494 ****               0 ****  **** 
   1533  MOH           9500 ****               0 ****  **** 
   1534  MOH           9506 ****               0 ****  **** 
   1535  MOH           9512 ****               0 ****  **** 
   1536  MOH           9518 ****               0 ****  **** 
   1537  MOH           9524 ****               0 ****  **** 
   1538  MOH           9530 ****               0 ****  **** 
   1539  MOH           9536 ****               0 ****  **** 
   1540  MOH           9542 ****               0 ****  **** 
   1541  MOH           9548 ****               0 ****  **** 
   1542  MOH           9554 ****               0 ****  **** 
   1543  MOH           9560 ****               0 ****  **** 
   1544  MOH           9566 ****               0 ****  **** 
   1545  MOH           9572 ****               0 ****  **** 
   1546  MOH           9578 ****               0 ****  **** 
   1547  MOH           9584 ****               0 ****  **** 
   1548  MOH           9590 ****               0 ****  **** 
   1549  MOH           9596 ****               0 ****  **** 
   1550  MOH           9602 ****               0 ****  **** 
   1551  MOH           9608 ****               0 ****  **** 
   1552  MOH           9614 ****               0 ****  **** 
   1553  MOH           9620 ****               0 ****  **** 
   1554  MOH           9626 ****               0 ****  **** 
   1555  MOH           9632 ****               0 ****  **** 
   1556  MOH           9638 ****               0 ****  **** 
   1557  MOH           9644 ****               0 ****  **** 
   1558  MOH           9650 ****               0 ****  **** 
   1559  MOH           9656 ****               0 ****  **** 
   1560  MOH           9662 ****               0 ****  **** 
   1561  MOH           9668 ****               0 ****  **** 
   1562  MOH           9674 ****               0 ****  **** 
   1563  MOH           9680 ****               0 ****  **** 
   1564  MOH           9686 ****               0 ****  **** 
   1565  MOH           9692 ****               0 ****  **** 
   1566  MOH           9698 ****               0 ****  **** 
   1567  MOH           9704 ****               0 ****  **** 
   1568  MOH           9710 ****               0 ****  **** 
   1569  MOH           9716 ****               0 ****  **** 
   1570  MOH           9722 ****               0 ****  **** 
   1571  MOH           9728 ****               0 ****  **** 
   1572  MOH           9734 ****               0 ****  **** 
   1573  MOH           9740 ****               0 ****  **** 
   1574  MOH           9746 ****               0 ****  **** 
   1575  MOH           9752 ****               0 ****  **** 
   1576  MOH           9758 ****               0 ****  **** 
   1577  MOH           9764 ****               0 ****  **** 
   1578  MOH           9770 ****               0 ****  **** 
   1579  MOH           9776 ****               0 ****  **** 
   1580  MOH           9782 ****               0 ****  **** 
   1581  MOH           9788 ****               0 ****  **** 
   1582  MOH           9794 ****               0 ****  **** 
   1583  MOH           9800 ****               0 ****  **** 
   1584  MOH           9806 ****               0 ****  **** 
   1585  MOH           9812 ****               0 ****  **** 
   1586  MOH           9818 ****               0 ****  **** 
   1587  MOH           9824 ****               0 ****  **** 
   1588  MOH           9830 ****               0 ****  **** 
   1589  MOH           9836 ****               0 ****  **** 
   1590  MOH           9842 ****               0 ****  **** 
   1591  MOH           9848 ****               0 ****  **** 
   1592  MOH           9854 ****               0 ****  **** 
   1593  MOH           9860 ****               0 ****  **** 
   1594  MOH           9866 ****               0 ****  **** 
   1595  MOH           9872 ****               0 ****  **** 
   1596  MOH           9878 ****               0 ****  **** 
   1597  MOH           9884 ****               0 ****  **** 
   1598  MOH           9890 ****               0 ****  **** 
   1599  MOH           9896 ****               0 ****  **** 
   1600  MOH           9902 ****               0 ****  **** 
   1601  MOH           9908 ****               0 ****  **** 
   1602  MOH           9914 ****               0 ****  **** 
   1603  MOH           9920 ****               0 ****  **** 
   1604  MOH           9926 ****               0 ****  **** 
   1605  MOH           9932 ****               0 ****  **** 
   1606  MOH           9938 ****               0 ****  **** 
   1607  MOH           9944 ****               0 ****  **** 
   1608  MOH           9950 ****               0 ****  **** 
   1609  MOH           9956 ****               0 ****  **** 
   1610  MOH           9962 ****               0 ****  **** 
   1611  MOH           9968 ****               0 ****  **** 
   1612  MOH           9974 ****               0 ****  **** 
   1613  MOH           9980 ****               0 ****  **** 
   1614  MOH           9986 ****               0 ****  **** 
   1615  MOH           9992 ****               0 ****  **** 
   1616  MOH           9998 ****               0 ****  **** 
   1617  MOH          10004 ****               0 ****  **** 
   1618  MOH          10010 ****               0 ****  **** 
   1619  MOH          10016 ****               0 ****  **** 
   1620  MOH          10022 ****               0 ****  **** 
   1621  MOH          10028 ****               0 ****  **** 
   1622  MOH          10034 ****               0 ****  **** 
   1623  MOH          10040 ****               0 ****  **** 
   1624  MOH          10046 ****               0 ****  **** 
   1625  MOH          10052 ****               0 ****  **** 
   1626  MOH          10058 ****               0 ****  **** 
   1627  MOH          10064 ****               0 ****  **** 
   1628  MOH          10070 ****               0 ****  **** 
   1629  MOH          10076 ****               0 ****  **** 
   1630  MOH          10082 ****               0 ****  **** 
   1631  MOH          10088 ****               0 ****  **** 
   1632  MOH          10094 ****               0 ****  **** 
   1633  MOH          10100 ****               0 ****  **** 
   1634  MOH          10106 ****               0 ****  **** 
   1635  MOH          10112 ****               0 ****  **** 
   1636  MOH          10118 ****               0 ****  **** 
   1637  MOH          10124 ****               0 ****  **** 
   1638  MOH          10130 ****               0 ****  **** 
   1639  MOH          10136 ****               0 ****  **** 
   1640  MOH          10142 ****               0 ****  **** 
   1641  MOH          10148 ****               0 ****  **** 
   1642  MOH          10154 ****               0 ****  **** 
   1643  MOH          10160 ****               0 ****  **** 
   1644  MOH          10166 ****               0 ****  **** 
   1645  MOH          10172 ****               0 ****  **** 
   1646  MOH          10178 ****               0 ****  **** 
   1647  MOH          10184 ****               0 ****  **** 
   1648  MOH          10190 ****               0 ****  **** 
   1649  MOH          10196 ****               0 ****  **** 
   1650  MOH          10202 ****               0 ****  **** 
   1651  MOH          10208 ****               0 ****  **** 
   1652  MOH          10214 ****               0 ****  **** 
   1653  MOH          10220 ****               0 ****  **** 
   1654  MOH          10226 ****               0 ****  **** 
   1655  MOH          10232 ****               0 ****  **** 
   1656  MOH          10238 ****               0 ****  **** 
   1657  MOH          10244 ****               0 ****  **** 
   1658  MOH          10250 ****               0 ****  **** 
   1659  MOH          10256 ****               0 ****  **** 
   1660  MOH          10262 ****               0 ****  **** 
   1661  MOH          10268 ****               0 ****  **** 
   1662  MOH          10274 ****               0 ****  **** 
   1663  MOH          10280 ****               0 ****  **** 
   1664  MOH          10286 ****               0 ****  **** 
   1665  MOH          10292 ****               0 ****  **** 
   1666  MOH          10298 ****               0 ****  **** 
   1667  MOH          10304 ****               0 ****  **** 
   1668  MOH          10310 ****               0 ****  **** 
   1669  MOH          10316 ****               0 ****  **** 
   1670  MOH          10322 ****               0 ****  **** 
   1671  MOH          10328 ****               0 ****  **** 
   1672  MOH          10334 ****               0 ****  **** 
   1673  MOH          10340 ****               0 ****  **** 
   1674  MOH          10346 ****               0 ****  **** 
   1675  MOH          10352 ****               0 ****  **** 
   1676  MOH          10358 ****               0 ****  **** 
   1677  MOH          10364 ****               0 ****  **** 
   1678  MOH          10370 ****               0 ****  **** 
   1679  MOH          10376 ****               0 ****  **** 
   1680  MOH          10382 ****               0 ****  **** 
   1681  MOH          10388 ****               0 ****  **** 
   1682  MOH          10394 ****               0 ****  **** 
   1683  MOH          10400 ****               0 ****  **** 
   1684  MOH          10406 ****               0 ****  **** 
   1685  MOH          10412 ****               0 ****  **** 
   1686  MOH          10418 ****               0 ****  **** 
   1687  MOH          10424 ****               0 ****  **** 
   1688  MOH          10430 ****               0 ****  **** 
   1689  MOH          10436 ****               0 ****  **** 
   1690  MOH          10442 ****               0 ****  **** 
   1691  MOH          10448 ****               0 ****  **** 
   1692  MOH          10454 ****               0 ****  **** 
   1693  MOH          10460 ****               0 ****  **** 
   1694  MOH          10466 ****               0 ****  **** 
   1695  MOH          10472 ****               0 ****  **** 
   1696  MOH          10478 ****               0 ****  **** 
   1697  MOH          10484 ****               0 ****  **** 
   1698  MOH          10490 ****               0 ****  **** 
   1699  MOH          10496 ****               0 ****  **** 
   1700  MOH          10502 ****               0 ****  **** 
   1701  MOH          10508 ****               0 ****  **** 
   1702  MOH          10514 ****               0 ****  **** 
   1703  MOH          10520 ****               0 ****  **** 
   1704  MOH          10526 ****               0 ****  **** 
   1705  MOH          10532 ****               0 ****  **** 
   1706  MOH          10538 ****               0 ****  **** 
   1707  MOH          10544 ****               0 ****  **** 
   1708  MOH          10550 ****               0 ****  **** 
   1709  MOH          10556 ****               0 ****  **** 
   1710  MOH          10562 ****               0 ****  **** 
   1711  MOH          10568 ****               0 ****  **** 
   1712  MOH          10574 ****               0 ****  **** 
   1713  MOH          10580 ****               0 ****  **** 
   1714  MOH          10586 ****               0 ****  **** 
   1715  MOH          10592 ****               0 ****  **** 
   1716  MOH          10598 ****               0 ****  **** 
   1717  MOH          10604 ****               0 ****  **** 
   1718  MOH          10610 ****               0 ****  **** 
   1719  MOH          10616 ****               0 ****  **** 
   1720  MOH          10622 ****               0 ****  **** 
   1721  MOH          10628 ****               0 ****  **** 
   1722  MOH          10634 ****               0 ****  **** 
   1723  MOH          10640 ****               0 ****  **** 
   1724  MOH          10646 ****               0 ****  **** 
   1725  MOH          10652 ****               0 ****  **** 
   1726  MOH          10658 ****               0 ****  **** 
   1727  MOH          10664 ****               0 ****  **** 
   1728  MOH          10670 ****               0 ****  **** 
   1729  MOH          10676 ****               0 ****  **** 
   1730  MOH          10682 ****               0 ****  **** 
   1731  MOH          10688 ****               0 ****  **** 
   1732  MOH          10694 ****               0 ****  **** 
   1733  MOH          10700 ****               0 ****  **** 
   1734  MOH          10706 ****               0 ****  **** 
   1735  MOH          10712 ****               0 ****  **** 
   1736  MOH          10718 ****               0 ****  **** 
   1737  MOH          10724 ****               0 ****  **** 
   1738  MOH          10730 ****               0 ****  **** 
   1739  MOH          10736 ****               0 ****  **** 
   1740  MOH          10742 ****               0 ****  **** 
   1741  MOH          10748 ****               0 ****  **** 
   1742  MOH          10754 ****               0 ****  **** 
   1743  MOH          10760 ****               0 ****  **** 
   1744  MOH          10766 ****               0 ****  **** 
   1745  MOH          10772 ****               0 ****  **** 
   1746  MOH          10778 ****               0 ****  **** 
   1747  MOH          10784 ****               0 ****  **** 
   1748  MOH          10790 ****               0 ****  **** 
   1749  MOH          10796 ****               0 ****  **** 
   1750  MOH          10802 ****               0 ****  **** 
   1751  MOH          10808 ****               0 ****  **** 
   1752  MOH          10814 ****               0 ****  **** 
   1753  MOH          10820 ****               0 ****  **** 
   1754  MOH          10826 ****               0 ****  **** 
   1755  MOH          10832 ****               0 ****  **** 
   1756  MOH          10838 ****               0 ****  **** 
   1757  MOH          10844 ****               0 ****  **** 
   1758  MOH          10850 ****               0 ****  **** 
   1759  MOH          10856 ****               0 ****  **** 
   1760  MOH          10862 ****               0 ****  **** 
   1761  MOH          10868 ****               0 ****  **** 
   1762  MOH          10874 ****               0 ****  **** 
   1763  MOH          10880 ****               0 ****  **** 
   1764  MOH          10886 ****               0 ****  **** 
   1765  MOH          10892 ****               0 ****  **** 
   1766  MOH          10898 ****               0 ****  **** 
   1767  MOH          10904 ****               0 ****  **** 
   1768  MOH          10910 ****               0 ****  **** 
   1769  MOH          10916 ****               0 ****  **** 
   1770  MOH          10922 ****               0 ****  **** 
   1771  MOH          10928 ****               0 ****  **** 
   1772  MOH          10934 ****               0 ****  **** 
   1773  MOH          10940 ****               0 ****  **** 
   1774  MOH          10946 ****               0 ****  **** 
   1775  MOH          10952 ****               0 ****  **** 
   1776  MOH          10958 ****               0 ****  **** 
   1777  MOH          10964 ****               0 ****  **** 
   1778  MOH          10970 ****               0 ****  **** 
   1779  MOH          10976 ****               0 ****  **** 
   1780  MOH          10982 ****               0 ****  **** 
   1781  MOH          10988 ****               0 ****  **** 
   1782  MOH          10994 ****               0 ****  **** 
   1783  MOH          11000 ****               0 ****  **** 
   1784  MOH          11006 ****               0 ****  **** 
   1785  MOH          11012 ****               0 ****  **** 
   1786  MOH          11018 ****               0 ****  **** 
   1787  MOH          11024 ****               0 ****  **** 
   1788  MOH          11030 ****               0 ****  **** 
   1789  MOH          11036 ****               0 ****  **** 
   1790  MOH          11042 ****               0 ****  **** 
   1791  MOH          11048 ****               0 ****  **** 
   1792  MOH          11054 ****               0 ****  **** 
   1793  MOH          11060 ****               0 ****  **** 
   1794  MOH          11066 ****               0 ****  **** 
   1795  MOH          11072 ****               0 ****  **** 
   1796  MOH          11078 ****               0 ****  **** 
   1797  MOH          11084 ****               0 ****  **** 
   1798  MOH          11090 ****               0 ****  **** 
   1799  MOH          11096 ****               0 ****  **** 
   1800  MOH          11102 ****               0 ****  **** 
   1801  MOH          11108 ****               0 ****  **** 
   1802  MOH          11114 ****               0 ****  **** 
   1803  MOH          11120 ****               0 ****  **** 
   1804  MOH          11126 ****               0 ****  **** 
   1805  MOH          11132 ****               0 ****  **** 
   1806  MOH          11138 ****               0 ****  **** 
   1807  MOH          11144 ****               0 ****  **** 
   1808  MOH          11150 ****               0 ****  **** 
   1809  MOH          11156 ****               0 ****  **** 
   1810  MOH          11162 ****               0 ****  **** 
   1811  MOH          11168 ****               0 ****  **** 
   1812  MOH          11174 ****               0 ****  **** 
   1813  MOH          11180 ****               0 ****  **** 
   1814  MOH          11186 ****               0 ****  **** 
   1815  MOH          11192 ****               0 ****  **** 
   1816  MOH          11198 ****               0 ****  **** 
   1817  MOH          11204 ****               0 ****  **** 
   1818  MOH          11210 ****               0 ****  **** 
   1819  MOH          11216 ****               0 ****  **** 
   1820  MOH          11222 ****               0 ****  **** 
   1821  MOH          11228 ****               0 ****  **** 
   1822  MOH          11234 ****               0 ****  **** 
   1823  MOH          11240 ****               0 ****  **** 
   1824  MOH          11246 ****               0 ****  **** 
   1825  MOH          11252 ****               0 ****  **** 
   1826  MOH          11258 ****               0 ****  **** 
   1827  MOH          11264 ****               0 ****  **** 
   1828  MOH          11270 ****               0 ****  **** 
   1829  MOH          11276 ****               0 ****  **** 
   1830  MOH          11282 ****               0 ****  **** 
   1831  MOH          11288 ****               0 ****  **** 
   1832  MOH          11294 ****               0 ****  **** 
   1833  MOH          11300 ****               0 ****  **** 
   1834  MOH          11306 ****               0 ****  **** 
   1835  MOH          11312 ****               0 ****  **** 
   1836  MOH          11318 ****               0 ****  **** 
   1837  MOH          11324 ****               0 ****  **** 
   1838  MOH          11330 ****               0 ****  **** 
   1839  MOH          11336 ****               0 ****  **** 
   1840  MOH          11342 ****               0 ****  **** 
   1841  MOH          11348 ****               0 ****  **** 
   1842  MOH          11354 ****               0 ****  **** 
   1843  MOH          11360 ****               0 ****  **** 
   1844  MOH          11366 ****               0 ****  **** 
   1845  MOH          11372 ****               0 ****  **** 
   1846  MOH          11378 ****               0 ****  **** 
   1847  MOH          11384 ****               0 ****  **** 
   1848  MOH          11390 ****               0 ****  **** 
   1849  MOH          11396 ****               0 ****  **** 
   1850  MOH          11402 ****               0 ****  **** 
   1851  MOH          11408 ****               0 ****  **** 
   1852  MOH          11414 ****               0 ****  **** 
   1853  MOH          11420 ****               0 ****  **** 
   1854  MOH          11426 ****               0 ****  **** 
   1855  MOH          11432 ****               0 ****  **** 
   1856  MOH          11438 ****               0 ****  **** 
   1857  MOH          11444 ****               0 ****  **** 
   1858  MOH          11450 ****               0 ****  **** 
   1859  MOH          11456 ****               0 ****  **** 
   1860  MOH          11462 ****               0 ****  **** 
   1861  MOH          11468 ****               0 ****  **** 
   1862  MOH          11474 ****               0 ****  **** 
   1863  MOH          11480 ****               0 ****  **** 
   1864  MOH          11486 ****               0 ****  **** 
   1865  MOH          11492 ****               0 ****  **** 
   1866  MOH          11498 ****               0 ****  **** 
   1867  MOH          11504 ****               0 ****  **** 
   1868  MOH          11510 ****               0 ****  **** 
   1869  MOH          11516 ****               0 ****  **** 
   1870  MOH          11522 ****               0 ****  **** 
   1871  MOH          11528 ****               0 ****  **** 
   1872  MOH          11534 ****               0 ****  **** 
   1873  MOH          11540 ****               0 ****  **** 
   1874  MOH          11546 ****               0 ****  **** 
   1875  MOH          11552 ****               0 ****  **** 
   1876  MOH          11558 ****               0 ****  **** 
   1877  MOH          11564 ****               0 ****  **** 
   1878  MOH          11570 ****               0 ****  **** 
   1879  MOH          11576 ****               0 ****  **** 
   1880  MOH          11582 ****               0 ****  **** 
   1881  MOH          11588 ****               0 ****  **** 
   1882  MOH          11594 ****               0 ****  **** 
   1883  MOH          11600 ****               0 ****  **** 
   1884  MOH          11606 ****               0 ****  **** 
   1885  MOH          11612 ****               0 ****  **** 
   1886  MOH          11618 ****               0 ****  **** 
   1887  MOH          11624 ****               0 ****  **** 
   1888  MOH          11630 ****               0 ****  **** 
   1889  MOH          11636 ****               0 ****  **** 
   1890  MOH          11642 ****               0 ****  **** 
   1891  MOH          11648 ****               0 ****  **** 
   1892  MOH          11654 ****               0 ****  **** 
   1893  MOH          11660 ****               0 ****  **** 
   1894  MOH          11666 ****               0 ****  **** 
   1895  MOH          11672 ****               0 ****  **** 
   1896  MOH          11678 ****               0 ****  **** 
   1897  MOH          11684 ****               0 ****  **** 
   1898  MOH          11690 ****               0 ****  **** 
   1899  MOH          11696 ****               0 ****  **** 
   1900  MOH          11702 ****               0 ****  **** 
   1901  MOH          11708 ****               0 ****  **** 
   1902  MOH          11714 ****               0 ****  **** 
   1903  MOH          11720 ****               0 ****  **** 
   1904  MOH          11726 ****               0 ****  **** 
   1905  MOH          11732 ****               0 ****  **** 
   1906  MOH          11738 ****               0 ****  **** 
   1907  MOH          11744 ****               0 ****  **** 
   1908  MOH          11750 ****               0 ****  **** 
   1909  MOH          11756 ****               0 ****  **** 
   1910  MOH          11762 ****               0 ****  **** 
   1911  MOH          11768 ****               0 ****  **** 
   1912  MOH          11774 ****               0 ****  **** 
   1913  MOH          11780 ****               0 ****  **** 
   1914  MOH          11786 ****               0 ****  **** 
   1915  MOH          11792 ****               0 ****  **** 
   1916  MOH          11798 ****               0 ****  **** 
   1917  MOH          11804 ****               0 ****  **** 
   1918  MOH          11810 ****               0 ****  **** 
   1919  MOH          11816 ****               0 ****  **** 
   1920  MOH          11822 ****               0 ****  **** 
   1921  MOH          11828 ****               0 ****  **** 
   1922  MOH          11834 ****               0 ****  **** 
   1923  MOH          11840 ****               0 ****  **** 
   1924  MOH          11846 ****               0 ****  **** 
   1925  MOH          11852 ****               0 ****  **** 
   1926  MOH          11858 ****               0 ****  **** 
   1927  MOH          11864 ****               0 ****  **** 
   1928  MOH          11870 ****               0 ****  **** 
   1929  MOH          11876 ****               0 ****  **** 
   1930  MOH          11882 ****               0 ****  **** 
   1931  MOH          11888 ****               0 ****  **** 
   1932  MOH          11894 ****               0 ****  **** 
   1933  MOH          11900 ****               0 ****  **** 
   1934  MOH          11906 ****               0 ****  **** 
   1935  MOH          11912 ****               0 ****  **** 
   1936  MOH          11918 ****               0 ****  **** 
   1937  MOH          11924 ****               0 ****  **** 
   1938  MOH          11930 ****               0 ****  **** 
   1939  MOH          11936 ****               0 ****  **** 
   1940  MOH          11942 ****               0 ****  **** 
   1941  MOH          11948 ****               0 ****  **** 
   1942  MOH          11954 ****               0 ****  **** 
   1943  MOH          11960 ****               0 ****  **** 
   1944  MOH          11966 ****               0 ****  **** 
   1945  MOH          11972 ****               0 ****  **** 
   1946  MOH          11978 ****               0 ****  **** 
   1947  MOH          11984 ****               0 ****  **** 
   1948  MOH          11990 ****               0 ****  **** 
   1949  MOH          11996 ****               0 ****  **** 
   1950  MOH          12002 ****               0 ****  **** 
   1951  MOH          12008 ****               0 ****  **** 
   1952  MOH          12014 ****               0 ****  **** 
   1953  MOH          12020 ****               0 ****  **** 
   1954  MOH          12026 ****               0 ****  **** 
   1955  MOH          12032 ****               0 ****  **** 
   1956  MOH          12038 ****               0 ****  **** 
   1957  MOH          12044 ****               0 ****  **** 
   1958  MOH          12050 ****               0 ****  **** 
   1959  MOH          12056 ****               0 ****  **** 
   1960  MOH          12062 ****               0 ****  **** 
   1961  MOH          12068 ****               0 ****  **** 
   1962  MOH          12074 ****               0 ****  **** 
   1963  MOH          12080 ****               0 ****  **** 
   1964  MOH          12086 ****               0 ****  **** 
   1965  MOH          12092 ****               0 ****  **** 
   1966  MOH          12098 ****               0 ****  **** 
   1967  MOH          12104 ****               0 ****  **** 
   1968  MOH          12110 ****               0 ****  **** 
   1969  MOH          12116 ****               0 ****  **** 
   1970  MOH          12122 ****               0 ****  **** 
   1971  MOH          12128 ****               0 ****  **** 
   1972  MOH          12134 ****               0 ****  **** 
   1973  MOH          12140 ****               0 ****  **** 
   1974  MOH          12146 ****               0 ****  **** 
   1975  MOH          12152 ****               0 ****  **** 
   1976  MOH          12158 ****               0 ****  **** 
   1977  MOH          12164 ****               0 ****  **** 
   1978  MOH          12170 ****               0 ****  **** 
   1979  MOH          12176 ****               0 ****  **** 
   1980  MOH          12182 ****               0 ****  **** 
   1981  MOH          12188 ****               0 ****  **** 
   1982  MOH          12194 ****               0 ****  **** 
   1983  MOH          12200 ****               0 ****  **** 
   1984  MOH          12206 ****               0 ****  **** 
   1985  MOH          12212 ****               0 ****  **** 
   1986  MOH          12218 ****               0 ****  **** 
   1987  MOH          12224 ****               0 ****  **** 
   1988  MOH          12230 ****               0 ****  **** 
   1989  MOH          12236 ****               0 ****  **** 
   1990  MOH          12242 ****               0 ****  **** 
   1991  MOH          12248 ****               0 ****  **** 
   1992  MOH          12254 ****               0 ****  **** 
   1993  MOH          12260 ****               0 ****  **** 
   1994  MOH          12266 ****               0 ****  **** 
   1995  MOH          12272 ****               0 ****  **** 
   1996  MOH          12278 ****               0 ****  **** 
   1997  MOH          12284 ****               0 ****  **** 
