@<TRIPOS>MOLECULE
XAP
14767 12368  2410     0     1 
SMALL
USER_CHARGES
@<TRIPOS>ATOM
  1 O1     13.374305   16.833631   -3.868399 O     1 XAP    -0.5795 ****
  2 H1     14.264810   16.975851   -3.457478 H     1 XAP     0.4237 ****
  3 C2     12.430320   16.645844   -2.866926 C     1 XAP     0.6227 ****
  4 O8     11.245713   16.449973   -3.160245 O     1 XAP    -0.4863 ****
  5 C3     12.849468   16.681815   -1.430252 C     1 XAP    -0.1745 ****
  6 H2     13.504520   15.821347   -1.234544 H     1 XAP     0.0736 ****
  7 H3     13.451538   17.584612   -1.256271 H     1 XAP     0.0736 ****
  8 C4     11.624740   16.638586   -0.510906 C     1 XAP    -0.0745 ****
  9 H4     10.983365   17.508509   -0.710084 H     1 XAP     0.0652 ****
 10 H5     11.058227   15.713938   -0.695535 H     1 XAP     0.0652 ****
 11 C5     12.093057   16.668248    0.947458 C     1 XAP    -0.1585 ****
 12 H6     12.749140   15.814065    1.165923 H     1 XAP     0.0746 ****
 13 H7     12.677072   17.576984    1.155129 H     1 XAP     0.0746 ****
 14 C4     10.908211   16.606592    1.903969 C     2 rAPO    0.6677 ****
 15 O6     11.030078   16.616763    3.133905 O     2 rAPO   -0.6236 ****
 16 N5      9.699736   16.539198    1.315105 N     2 rAPO   -0.5695 ****
 17 H8      9.659135   16.528158    0.322997 H     2 rAPO    0.3203 ****
 18 C7      8.430382   16.490140    2.054857 C     2 rAPO    0.0478 ****
 19 C10     8.290383   17.576801    3.152659 C     2 rAPO   -0.0972 ****
 20 C11     8.412945   18.981732    2.533993 C     2 rAPO   -0.0113 ****
 21 S12     8.263657   20.227669    3.839779 S     2 rAPO   -0.3064 ****
 22 C13     6.636770   20.124501    4.624048 C     2 rAPO   -0.0033 ****
 23 C14     6.553906   21.170850    5.744098 C     2 rAPO   -0.1174 ****
 24 C15     5.199654   21.077202    6.368011 C     2 rAPO    0.4096 ****
 25 C16     4.930742   20.063254    7.386363 C     2 rAPO   -0.2427 ****
 26 C17     3.722375   19.994523    7.930473 C     2 rAPO   -0.0898 ****
 27 C19     2.699697   20.932974    7.497398 C     2 rAPO   -0.2487 ****
 28 C21     2.995309   21.838266    6.566117 C     2 rAPO    0.4002 ****
 29 N23     4.285185   21.886929    6.006205 N     2 rAPO   -0.6664 ****
 30 H21     2.254967   22.525766    6.245434 H     2 rAPO    0.0222 ****
 31 H20     1.727300   20.897699    7.917873 H     2 rAPO    0.1444 ****
 32 H19     3.504843   19.266295    8.670801 H     2 rAPO    0.1393 ****
 33 H18     5.693854   19.389291    7.684948 H     2 rAPO    0.1444 ****
 34 H16     7.331237   20.922735    6.481795 H     2 rAPO    0.0684 ****
 35 H17     6.704571   22.165684    5.304543 H     2 rAPO    0.0684 ****
 36 H14     5.855772   20.321968    3.876486 H     2 rAPO    0.0719 ****
 37 H15     6.491405   19.120801    5.050023 H     2 rAPO    0.0719 ****
 38 H12     9.395325   19.078071    2.050827 H     2 rAPO    0.0729 ****
 39 H13     7.619792   19.128837    1.787622 H     2 rAPO    0.0729 ****
 40 H10     7.309312   17.473395    3.634748 H     2 rAPO    0.0789 ****
 41 H11     9.078063   17.442581    3.904294 H     2 rAPO    0.0789 ****
 42 H9      7.641041   16.598496    1.299342 H     2 rAPO    0.0859 ****
 43 C8      8.268884   15.142556    2.700570 C     2 rAPO    0.6377 ****
 44 O9      8.059545   15.070885    3.916603 O     2 rAPO   -0.6106 ****
 45 N25     8.308117   14.035979    1.963788 N     2 rAPO   -0.5575 ****
 46 H22     8.460901   14.097327    0.984532 H     2 rAPO    0.3443 ****
 47 C26     8.087386   12.751896    2.579327 C     2 rAPO    0.0852 ****
 48 H23     8.778623   12.006735    2.158700 H     2 rAPO    0.0739 ****
 49 H24     8.208842   12.823417    3.668243 H     2 rAPO    0.0739 ****
 50 C27     6.641782   12.319095    2.252449 C     2 rAPO    0.1127 ****
 51 H25     5.943997   13.069168    2.650303 H     2 rAPO    0.0583 ****
 52 H26     6.521525   12.250557    1.162200 H     2 rAPO    0.0583 ****
 53 O28     6.350782   11.046601    2.843688 O     2 rAPO   -0.4388 ****
 54 C29     5.033181   10.689205    2.538078 C     2 rAPO    0.6357 ****
 55 O31     4.331818   11.439111    1.848222 O     2 rAPO   -0.5417 ****
 56 C30     4.458414    9.401805    3.053099 C     2 rAPO   -0.1291 ****
 57 H27     5.122502    8.573547    2.768885 H     2 rAPO    0.0834 ****
 58 H28     4.447082    9.436350    4.151497 H     2 rAPO    0.0834 ****
 59 C32     3.035603    9.189586    2.506207 C     2 rAPO   -0.0782 ****
 60 H29     2.393708   10.023132    2.820493 H     2 rAPO    0.0624 ****
 61 H30     3.067844    9.144871    1.408590 H     2 rAPO    0.0624 ****
 62 C33     2.467203    7.872743    3.055880 C     2 rAPO   -0.1560 ****
 63 H31     3.099807    7.021107    2.768947 H     2 rAPO    0.0754 ****
 64 H32     2.437035    7.885765    4.155390 H     2 rAPO    0.0754 ****
 65 C4      1.064307    7.615882    2.518776 C     3 rPOO    0.6669 ****
 66 O6      0.396921    6.618048    2.817259 O     3 rPOO   -0.6224 ****
 67 N5      0.590891    8.555079    1.688483 N     3 rPOO   -0.5703 ****
 68 H8      1.165910    9.338727    1.480434 H     3 rPOO    0.3224 ****
 69 C7     -0.725381    8.475425    1.073578 C     3 rPOO    0.0508 ****
 70 C8     -1.816760    8.574001    2.176846 C     3 rPOO   -0.0862 ****
 71 C9     -3.227398    8.533241    1.547985 C     3 rPOO   -0.0143 ****
 72 S10    -4.464959    8.669662    2.853453 S     3 rPOO   -0.2974 ****
 73 C11    -6.107246    8.621808    2.106040 C     3 rPOO   -0.0143 ****
 74 C26    -7.173654    8.734348    3.204372 C     3 rPOO   -0.1171 ****
 75 C27    -8.545827    8.703407    2.606715 C     3 rPOO    0.6319 ****
 76 O28    -8.682770    8.737487    1.377791 O     3 rPOO   -0.5375 ****
 77 O29    -9.661207    8.635137    3.435055 O     3 rPOO   -0.4387 ****
 78 C30   -10.848965    8.615224    2.642579 C     3 rPOO    0.1260 ****
 79 H31   -11.727834    8.560174    3.300120 H     3 rPOO    0.0518 ****
 80 H32   -10.831675    7.737468    1.978164 H     3 rPOO    0.0518 ****
 81 H33   -10.900698    9.530992    2.037192 H     3 rPOO    0.0518 ****
 82 H29    -7.085443    7.920415    3.937538 H     3 rPOO    0.0940 ****
 83 H30    -7.054340    9.676768    3.758997 H     3 rPOO    0.0940 ****
 84 H14    -6.214280    9.461235    1.403255 H     3 rPOO    0.0784 ****
 85 H15    -6.236625    7.672672    1.565297 H     3 rPOO    0.0784 ****
 86 H12    -3.339878    9.372032    0.848427 H     3 rPOO    0.0709 ****
 87 H13    -3.373980    7.585464    1.011296 H     3 rPOO    0.0709 ****
 88 H10    -1.706456    7.740751    2.883339 H     3 rPOO    0.0799 ****
 89 H11    -1.696342    9.526132    2.712333 H     3 rPOO    0.0799 ****
 90 H9     -0.801608    9.307714    0.361476 H     3 rPOO    0.0869 ****
 91 C12    -0.827677    7.167198    0.332547 C     3 rPOO    0.6389 ****
 92 O13    -1.335579    6.176711    0.872119 O     3 rPOO   -0.6144 ****
 93 N14    -0.359523    7.076911   -0.903699 N     3 rPOO   -0.5593 ****
 94 H16     0.052477    7.868835   -1.338627 H     3 rPOO    0.3455 ****
 95 C15    -0.447609    5.838140   -1.604529 C     3 rPOO    0.0852 ****
 96 H17     0.050793    5.054630   -1.014861 H     3 rPOO    0.0734 ****
 97 H18    -1.505733    5.563282   -1.716901 H     3 rPOO    0.0734 ****
 98 C16     0.213257    5.971089   -2.980249 C     3 rPOO    0.1147 ****
 99 H19    -0.299197    6.752737   -3.558364 H     3 rPOO    0.0579 ****
100 H20     1.271721    6.241864   -2.852442 H     3 rPOO    0.0579 ****
101 O17     0.120045    4.725788   -3.670804 O     3 rPOO   -0.4387 ****
102 C18     0.717975    4.839187   -4.919379 C     3 rPOO    0.6369 ****
103 O19     1.225572    5.908839   -5.274184 O     3 rPOO   -0.5415 ****
104 C20     0.751628    3.659214   -5.836743 C     3 rPOO   -0.1290 ****
105 H21     0.577265    2.733482   -5.270689 H     3 rPOO    0.0839 ****
106 H22    -0.042135    3.774965   -6.589433 H     3 rPOO    0.0839 ****
107 C21     2.088436    3.629195   -6.582401 C     3 rPOO   -0.0782 ****
108 H23     2.211023    4.559170   -7.155044 H     3 rPOO    0.0629 ****
109 H24     2.911192    3.532700   -5.860208 H     3 rPOO    0.0629 ****
110 C22     2.101006    2.434383   -7.541197 C     3 rPOO   -0.1560 ****
111 H25     1.967410    1.494479   -6.987542 H     3 rPOO    0.0754 ****
112 H26     1.275296    2.495918   -8.265363 H     3 rPOO    0.0754 ****
113 C4      3.420863    2.354799   -8.298971 C     4 rOOP    0.6669 ****
114 O6      3.671743    1.475297   -9.131859 O     4 rOOP   -0.6224 ****
115 N5      4.307941    3.313990   -8.001237 N     4 rOOP   -0.5703 ****
116 H8      4.058265    3.998681   -7.325296 H     4 rOOP    0.3224 ****
117 C7      5.622608    3.394011   -8.619518 C     4 rOOP    0.0508 ****
118 C8      5.461504    3.694127  -10.136753 C     4 rOOP   -0.0862 ****
119 C9      6.844707    3.825325  -10.812447 C     4 rOOP   -0.0143 ****
120 S10     6.618730    4.192404  -12.564190 S     4 rOOP   -0.2974 ****
121 C11     8.240867    4.344078  -13.341167 C     4 rOOP   -0.0143 ****
122 C26     8.066898    4.654262  -14.834401 C     4 rOOP   -0.1171 ****
123 C27     9.401070    4.791113  -15.499430 C     4 rOOP    0.6319 ****
124 O28    10.432285    4.790096  -14.816229 O     4 rOOP   -0.5375 ****
125 O29     9.476305    4.917513  -16.882631 O     4 rOOP   -0.4387 ****
126 C30    10.842599    5.030662  -17.282158 C     4 rOOP    0.1260 ****
127 H31    10.898221    5.129231  -18.375314 H     4 rOOP    0.0518 ****
128 H32    11.392713    4.130891  -16.965950 H     4 rOOP    0.0518 ****
129 H33    11.289785    5.917036  -16.810812 H     4 rOOP    0.0518 ****
130 H29     7.492395    3.869074  -15.345505 H     4 rOOP    0.0940 ****
131 H30     7.510809    5.593870  -14.968198 H     4 rOOP    0.0940 ****
132 H14     8.802504    5.158474  -12.860208 H     4 rOOP    0.0784 ****
133 H15     8.793047    3.399860  -13.224765 H     4 rOOP    0.0784 ****
134 H12     7.407359    4.640003  -10.337762 H     4 rOOP    0.0709 ****
135 H13     7.404625    2.885058  -10.711495 H     4 rOOP    0.0709 ****
136 H10     4.894582    2.885543  -10.616747 H     4 rOOP    0.0799 ****
137 H11     4.918897    4.642342  -10.256200 H     4 rOOP    0.0799 ****
138 H9      6.172238    4.196588   -8.110222 H     4 rOOP    0.0869 ****
139 C12     6.332057    2.082016   -8.404110 C     4 rOOP    0.6389 ****
140 O13     6.295532    1.197866   -9.268467 O     4 rOOP   -0.6144 ****
141 N14     6.991264    1.872243   -7.274036 N     4 rOOP   -0.5593 ****
142 H16     7.019417    2.578156   -6.576224 H     4 rOOP    0.3455 ****
143 C15     7.656805    0.628702   -7.063949 C     4 rOOP    0.0852 ****
144 H17     6.930288   -0.190625   -7.168237 H     4 rOOP    0.0734 ****
145 H18     8.431521    0.501322   -7.832969 H     4 rOOP    0.0734 ****
146 C16     8.288258    0.606365   -5.668316 C     4 rOOP    0.1147 ****
147 H19     9.014920    1.426343   -5.582302 H     4 rOOP    0.0579 ****
148 H20     7.501674    0.730338   -4.909424 H     4 rOOP    0.0579 ****
149 O17     8.949516   -0.642458   -5.469553 O     4 rOOP   -0.4387 ****
150 C18     9.524202   -0.669651   -4.205307 C     4 rOOP    0.6369 ****
151 O19     9.414203    0.300964   -3.448007 O     4 rOOP   -0.5415 ****
152 C20    10.275726   -1.881753   -3.756927 C     4 rOOP   -0.1290 ****
153 H21    10.003117   -2.747789   -4.376175 H     4 rOOP    0.0839 ****
154 H22    11.353252   -1.688311   -3.864246 H     4 rOOP    0.0839 ****
155 C21    10.001626   -2.132989   -2.271764 C     4 rOOP   -0.0782 ****
156 H23    10.311983   -1.255738   -1.687033 H     4 rOOP    0.0629 ****
157 H24     8.928059   -2.312823   -2.120393 H     4 rOOP    0.0629 ****
158 C22    10.799288   -3.358613   -1.815031 C     4 rOOP   -0.1560 ****
159 H25    10.511110   -4.244966   -2.397382 H     4 rOOP    0.0754 ****
160 H26    11.878229   -3.213025   -1.972165 H     4 rOOP    0.0754 ****
161 C4     10.548094   -3.657008   -0.341790 C     5 rOPO    0.6677 ****
162 O6     11.079078   -4.598138    0.258232 O     5 rOPO   -0.6236 ****
163 N5      9.696945   -2.816772    0.275675 N     5 rOPO   -0.5695 ****
164 H8      9.293840   -2.080580   -0.254964 H     5 rOPO    0.3203 ****
165 C7      9.333609   -2.917786    1.696479 C     5 rOPO    0.0478 ****
166 C10    10.544949   -3.050956    2.655916 C     5 rOPO   -0.0972 ****
167 C11    11.485157   -1.840998    2.502255 C     5 rOPO   -0.0113 ****
168 S12    12.897186   -2.032358    3.619964 S     5 rOPO   -0.3064 ****
169 C13    12.337578   -2.064673    5.339928 C     5 rOPO   -0.0033 ****
170 C14    13.552501   -2.258287    6.257916 C     5 rOPO   -0.1174 ****
171 C15    13.069567   -2.268407    7.671673 C     5 rOPO    0.4096 ****
172 C16    12.521308   -3.494228    8.249788 C     5 rOPO   -0.2427 ****
173 C17    12.097415   -3.485564    9.507233 C     5 rOPO   -0.0898 ****
174 C19    12.192369   -2.254347   10.274830 C     5 rOPO   -0.2487 ****
175 C21    12.699956   -1.164243    9.701897 C     5 rOPO    0.4002 ****
176 N23    13.140723   -1.202914    8.366278 N     5 rOPO   -0.6664 ****
177 H21    12.772444   -0.263038   10.255228 H     5 rOPO    0.0222 ****
178 H20    11.860593   -2.223198   11.281087 H     5 rOPO    0.1444 ****
179 H19    11.695418   -4.363493    9.946961 H     5 rOPO    0.1393 ****
180 H18    12.462053   -4.379927    7.668628 H     5 rOPO    0.1444 ****
181 H16    14.004190   -3.228244    6.002648 H     5 rOPO    0.0684 ****
182 H17    14.248102   -1.424054    6.097297 H     5 rOPO    0.0684 ****
183 H14    11.840193   -1.115025    5.581957 H     5 rOPO    0.0719 ****
184 H15    11.632326   -2.895967    5.486788 H     5 rOPO    0.0719 ****
185 H12    11.846479   -1.795027    1.465368 H     5 rOPO    0.0729 ****
186 H13    10.942442   -0.916465    2.744123 H     5 rOPO    0.0729 ****
187 H10    10.178229   -3.100653    3.689672 H     5 rOPO    0.0789 ****
188 H11    11.097281   -3.969973    2.424085 H     5 rOPO    0.0789 ****
189 H9      8.758478   -2.010067    1.922034 H     5 rOPO    0.0859 ****
190 C8      8.430641   -4.100456    1.908492 C     5 rOPO    0.6377 ****
191 O9      8.733773   -4.955609    2.747849 O     5 rOPO   -0.6106 ****
192 N25     7.292001   -4.206108    1.229346 N     5 rOPO   -0.5575 ****
193 H22     7.043261   -3.509552    0.566786 H     5 rOPO    0.3443 ****
194 C26     6.399872   -5.308516    1.484853 C     5 rOPO    0.0852 ****
195 H23     5.978010   -5.680887    0.539670 H     5 rOPO    0.0739 ****
196 H24     6.926077   -6.111083    2.018331 H     5 rOPO    0.0739 ****
197 C27     5.244728   -4.781190    2.363206 C     5 rOPO    0.1127 ****
198 H25     5.658766   -4.386896    3.301772 H     5 rOPO    0.0583 ****
199 H26     4.720960   -3.976386    1.828642 H     5 rOPO    0.0583 ****
200 O28     4.319180   -5.833181    2.663479 O     5 rOPO   -0.4388 ****
201 C29     3.292867   -5.325761    3.467474 C     5 rOPO    0.6357 ****
202 O31     3.293915   -4.132662    3.794097 O     5 rOPO   -0.5417 ****
203 C30     2.191646   -6.225431    3.948001 C     5 rOPO   -0.1291 ****
204 H27     1.742437   -6.735204    3.084205 H     5 rOPO    0.0834 ****
205 H28     2.628884   -7.006945    4.585072 H     5 rOPO    0.0834 ****
206 C32     1.139359   -5.419344    4.729945 C     5 rOPO   -0.0782 ****
207 H29     1.614695   -4.936813    5.594135 H     5 rOPO    0.0624 ****
208 H30     0.704288   -4.651940    4.074503 H     5 rOPO    0.0624 ****
209 C33     0.030883   -6.363579    5.218819 C     5 rOPO   -0.1560 ****
210 H31    -0.452901   -6.873052    4.373721 H     5 rOPO    0.0754 ****
211 H32     0.442485   -7.151222    5.867050 H     5 rOPO    0.0754 ****
212 C4     -1.043681   -5.597506    5.981067 C     6 rPOO    0.6669 ****
213 O6     -2.040863   -6.138923    6.473677 O     6 rPOO   -0.6224 ****
214 N5     -0.836925   -4.277717    6.085998 N     6 rPOO   -0.5703 ****
215 H8     -0.019608   -3.890667    5.673419 H     6 rPOO    0.3224 ****
216 C7     -1.758947   -3.385518    6.772205 C     6 rPOO    0.0508 ****
217 C8     -1.782942   -3.734662    8.287312 C     6 rPOO   -0.0862 ****
218 C9     -2.724254   -2.775140    9.049069 C     6 rPOO   -0.0143 ****
219 S10    -2.711320   -3.196898   10.803028 S     6 rPOO   -0.2974 ****
220 C11    -3.813306   -2.068828   11.681157 C     6 rPOO   -0.0143 ****
221 C26    -3.816195   -2.415620   13.176467 C     6 rPOO   -0.1171 ****
222 C27    -4.719610   -1.487600   13.927220 C     6 rPOO    0.6319 ****
223 O28    -5.222243   -0.516388   13.349054 O     6 rPOO   -0.5375 ****
224 O29    -4.991452   -1.721475   15.271201 O     6 rPOO   -0.4387 ****
225 C30    -5.872001   -0.712507   15.766984 C     6 rPOO    0.1260 ****
226 H31    -6.085365   -0.901059   16.828457 H     6 rPOO    0.0518 ****
227 H32    -6.812005   -0.732546   15.194104 H     6 rPOO    0.0518 ****
228 H33    -5.398184    0.273059   15.657621 H     6 rPOO    0.0518 ****
229 H29    -4.143479   -3.450265   13.350237 H     6 rPOO    0.0940 ****
230 H30    -2.801337   -2.328695   13.591807 H     6 rPOO    0.0940 ****
231 H14    -3.463248   -1.034954   11.544911 H     6 rPOO    0.0784 ****
232 H15    -4.833040   -2.166042   11.280292 H     6 rPOO    0.0784 ****
233 H12    -2.376072   -1.741980    8.918861 H     6 rPOO    0.0709 ****
234 H13    -3.749561   -2.868189    8.664507 H     6 rPOO    0.0709 ****
235 H10    -2.125136   -4.768940    8.424335 H     6 rPOO    0.0799 ****
236 H11    -0.767080   -3.628571    8.692984 H     6 rPOO    0.0799 ****
237 H9     -1.403421   -2.360277    6.604616 H     6 rPOO    0.0869 ****
238 C12    -3.126680   -3.550776    6.161430 C     6 rPOO    0.6389 ****
239 O13    -3.951008   -4.323761    6.664566 O     6 rPOO   -0.6144 ****
240 N14    -3.442921   -2.868924    5.070241 N     6 rPOO   -0.5593 ****
241 H16    -2.782363   -2.250504    4.661255 H     6 rPOO    0.3455 ****
242 C15    -4.733537   -3.029284    4.485373 C     6 rPOO    0.0852 ****
243 H17    -4.895719   -4.093038    4.257062 H     6 rPOO    0.0734 ****
244 H18    -5.497789   -2.712420    5.208779 H     6 rPOO    0.0734 ****
245 C16    -4.833514   -2.189051    3.208252 C     6 rPOO    0.1147 ****
246 H19    -4.675130   -1.129634    3.453916 H     6 rPOO    0.0579 ****
247 H20    -4.066508   -2.519689    2.492445 H     6 rPOO    0.0579 ****
248 O17    -6.127871   -2.358776    2.631916 O     6 rPOO   -0.4387 ****
249 C18    -6.225260   -1.599654    1.472792 C     6 rPOO    0.6369 ****
250 O19    -5.268366   -0.916870    1.090883 O     6 rPOO   -0.5415 ****
251 C20    -7.493103   -1.612708    0.680687 C     6 rPOO   -0.1290 ****
252 H21    -8.097285   -2.491506    0.946165 H     6 rPOO    0.0839 ****
253 H22    -8.063396   -0.701206    0.912915 H     6 rPOO    0.0839 ****
254 C21    -7.162702   -1.577429   -0.813820 C     6 rPOO   -0.0782 ****
255 H23    -6.582279   -0.672232   -1.040817 H     6 rPOO    0.0629 ****
256 H24    -6.574849   -2.466303   -1.082394 H     6 rPOO    0.0629 ****
257 C22    -8.468023   -1.560773   -1.615620 C     6 rPOO   -0.1560 ****
258 H25    -9.068748   -2.453641   -1.392648 H     6 rPOO    0.0754 ****
259 H26    -9.085792   -0.689307   -1.353115 H     6 rPOO    0.0754 ****
260 C4     -8.189630   -1.538622   -3.113814 C     7 rOOO    0.6669 ****
261 O6     -9.083554   -1.522506   -3.968687 O     7 rOOO   -0.6224 ****
262 N5     -6.893229   -1.537682   -3.452846 N     7 rOOO   -0.5703 ****
263 H8     -6.212770   -1.550316   -2.728379 H     7 rOOO    0.3224 ****
264 C7     -6.437824   -1.524827   -4.834681 C     7 rOOO    0.0508 ****
265 C8     -6.849660   -0.181476   -5.500881 C     7 rOOO   -0.0862 ****
266 C9     -6.342703   -0.122667   -6.959155 C     7 rOOO   -0.0143 ****
267 S10    -6.820871    1.454839   -7.692125 S     7 rOOO   -0.2974 ****
268 C11    -6.222246    1.511240   -9.394033 C     7 rOOO   -0.0143 ****
269 C26    -6.623133    2.847495  -10.034297 C     7 rOOO   -0.1171 ****
270 C27    -6.130987    2.919841  -11.446234 C     7 rOOO    0.6319 ****
271 O28    -5.382855    2.036947  -11.883231 O     7 rOOO   -0.5375 ****
272 O29    -6.517657    3.978391  -12.261610 O     7 rOOO   -0.4387 ****
273 C30    -5.928688    3.830651  -13.554078 C     7 rOOO    0.1260 ****
274 H31    -6.237156    4.667895  -14.195693 H     7 rOOO    0.0518 ****
275 H32    -6.261963    2.881955  -14.002525 H     7 rOOO    0.0518 ****
276 H33    -4.833806    3.825413  -13.459174 H     7 rOOO    0.0518 ****
277 H29    -7.713268    2.986703  -10.028910 H     7 rOOO    0.0940 ****
278 H30    -6.192114    3.687376   -9.469654 H     7 rOOO    0.0940 ****
279 H14    -5.126432    1.415559   -9.400082 H     7 rOOO    0.0784 ****
280 H15    -6.665362    0.682929   -9.966352 H     7 rOOO    0.0784 ****
281 H12    -5.248554   -0.213962   -6.969501 H     7 rOOO    0.0709 ****
282 H13    -6.784839   -0.940256   -7.545555 H     7 rOOO    0.0709 ****
283 H10    -7.943008   -0.081232   -5.488854 H     7 rOOO    0.0799 ****
284 H11    -6.399965    0.647808   -4.937086 H     7 rOOO    0.0799 ****
285 H9     -5.346400   -1.643590   -4.817604 H     7 rOOO    0.0869 ****
286 C12    -7.060758   -2.693743   -5.553457 C     7 rOOO    0.6389 ****
287 O13    -8.107025   -2.550921   -6.197735 O     7 rOOO   -0.6144 ****
288 N14    -6.486508   -3.885856   -5.484676 N     7 rOOO   -0.5593 ****
289 H16    -5.648727   -4.005162   -4.965120 H     7 rOOO    0.3455 ****
290 C15    -7.077982   -4.995574   -6.157105 C     7 rOOO    0.0852 ****
291 H17    -8.113785   -5.117933   -5.807620 H     7 rOOO    0.0734 ****
292 H18    -7.101196   -4.790854   -7.236620 H     7 rOOO    0.0734 ****
293 C16    -6.267702   -6.265199   -5.876886 C     7 rOOO    0.1147 ****
294 H19    -5.238220   -6.129122   -6.236679 H     7 rOOO    0.0579 ****
295 H20    -6.256669   -6.460048   -4.794337 H     7 rOOO    0.0579 ****
296 O17    -6.869689   -7.368043   -6.553403 O     7 rOOO   -0.4387 ****
297 C18    -6.139942   -8.523105   -6.303157 C     7 rOOO    0.6369 ****
298 O19    -5.135196   -8.483907   -5.584376 O     7 rOOO   -0.5415 ****
299 C20    -6.575459   -9.821412   -6.902946 C     7 rOOO   -0.1290 ****
300 H21    -7.627026   -9.760678   -7.216504 H     7 rOOO    0.0839 ****
301 H22    -5.949675  -10.030816   -7.783029 H     7 rOOO    0.0839 ****
302 C21    -6.344014  -10.952417   -5.897351 C     7 rOOO   -0.0782 ****
303 H23    -5.278625  -10.995401   -5.631080 H     7 rOOO    0.0629 ****
304 H24    -6.940454  -10.769014   -4.992684 H     7 rOOO    0.0629 ****
305 C22    -6.765158  -12.281627   -6.532066 C     7 rOOO   -0.1560 ****
306 H25    -7.826322  -12.253783   -6.816595 H     7 rOOO    0.0754 ****
307 H26    -6.195536  -12.482332   -7.451440 H     7 rOOO    0.0754 ****
308 C4     -6.564773  -13.439268   -5.561351 C     8 rOOT    0.6666 ****
309 O6     -6.832930  -14.613549   -5.842999 O     8 rOOT   -0.6227 ****
310 N5     -6.071302  -13.099368   -4.362787 N     8 rOOT   -0.5706 ****
311 H8     -5.871349  -12.141953   -4.185558 H     8 rOOT    0.3222 ****
312 C7     -5.820740  -14.069175   -3.307459 C     8 rOOT    0.0508 ****
313 C8     -4.689047  -15.037250   -3.754816 C     8 rOOT   -0.0862 ****
314 C9     -4.372936  -16.054373   -2.635639 C     8 rOOT   -0.0143 ****
315 S10    -3.044547  -17.146030   -3.181609 S     8 rOOT   -0.2975 ****
316 C11    -2.684433  -18.327924   -1.865756 C     8 rOOT   -0.0143 ****
317 C26    -1.556669  -19.267303   -2.315134 C     8 rOOT   -0.1171 ****
318 C27    -1.235814  -20.253696   -1.235740 C     8 rOOT    0.6315 ****
319 O28    -1.759227  -20.138056   -0.120915 O     8 rOOT   -0.5378 ****
320 O29    -0.351737  -21.296918   -1.490645 O     8 rOOT   -0.4389 ****
321 C30    -0.206074  -22.101509   -0.319919 C     8 rOOT    0.1260 ****
322 H31     0.492036  -22.925078   -0.525289 H     8 rOOT    0.0518 ****
323 H32    -1.186242  -22.513429   -0.033923 H     8 rOOT    0.0518 ****
324 H33     0.185287  -21.485276    0.501600 H     8 rOOT    0.0518 ****
325 H29    -1.827039  -19.814166   -3.229269 H     8 rOOT    0.0939 ****
326 H30    -0.647813  -18.691989   -2.545337 H     8 rOOT    0.0939 ****
327 H14    -2.371510  -17.785136   -0.961621 H     8 rOOT    0.0784 ****
328 H15    -3.586574  -18.917413   -1.645202 H     8 rOOT    0.0784 ****
329 H12    -4.056325  -15.516730   -1.732145 H     8 rOOT    0.0709 ****
330 H13    -5.264026  -16.657056   -2.410842 H     8 rOOT    0.0709 ****
331 H10    -4.997138  -15.574345   -4.661575 H     8 rOOT    0.0799 ****
332 H11    -3.783150  -14.452034   -3.966177 H     8 rOOT    0.0799 ****
333 H9     -5.532070  -13.505286   -2.410630 H     8 rOOT    0.0869 ****
334 C12    -7.097584  -14.823356   -3.039263 C     8 rOOT    0.6385 ****
335 O13    -7.314785  -15.908812   -3.591330 O     8 rOOT   -0.6147 ****
336 N14    -7.998241  -14.312369   -2.212622 N     8 rOOT   -0.5596 ****
337 H16    -7.829103  -13.439344   -1.770730 H     8 rOOT    0.3453 ****
338 C15    -9.210969  -15.019834   -1.963107 C     8 rOOT    0.0852 ****
339 H17    -9.722302  -15.206193   -2.919041 H     8 rOOT    0.0734 ****
340 H18    -8.973225  -15.990277   -1.505374 H     8 rOOT    0.0734 ****
341 C16   -10.108137  -14.200531   -1.029910 C     8 rOOT    0.1147 ****
342 H19    -9.585841  -14.028108   -0.078449 H     8 rOOT    0.0578 ****
343 H20   -10.341332  -13.234837   -1.502196 H     8 rOOT    0.0578 ****
344 O17   -11.318120  -14.917632   -0.789003 O     8 rOOT   -0.4389 ****
345 C18   -12.136807  -14.179912    0.056479 C     8 rOOT    0.6365 ****
346 O19   -11.769589  -13.076774    0.475925 O     8 rOOT   -0.5418 ****
347 C20   -13.471368  -14.721615    0.457138 C     8 rOOT   -0.1291 ****
348 H21   -13.783947  -15.513024   -0.238395 H     8 rOOT    0.0839 ****
349 H22   -13.390919  -15.144247    1.469517 H     8 rOOT    0.0839 ****
350 C21   -14.489508  -13.579816    0.517526 C     8 rOOT   -0.0782 ****
351 H23   -14.152919  -12.824947    1.241875 H     8 rOOT    0.0628 ****
352 H24   -14.584638  -13.117960   -0.475168 H     8 rOOT    0.0628 ****
353 C3    -15.876714  -14.083523    0.950402 C     9 rOTX   -0.1435 ****
354 H11   -15.812178  -14.541127    1.948618 H     9 rOTX    0.0625 ****
355 H12   -16.241517  -14.833224    0.232859 H     9 rOTX    0.0625 ****
356 C4    -16.875388  -12.945667    1.006592 C     9 rOTX    0.6707 ****
357 N5    -16.754563  -11.896490    1.842677 N     9 rOTX   -0.5586 ****
358 C7    -15.653054  -11.735333    2.782653 C     9 rOTX    0.0027 ****
359 C8    -15.941440  -12.357168    4.205114 C     9 rOTX   -0.1031 ****
360 C9    -14.719622  -11.941871    5.086963 C     9 rOTX   -0.0269 ****
361 S10   -14.752898  -10.257855    4.719324 S     9 rOTX   -0.2001 ****
362 C11   -15.396581  -10.300700    3.169202 C     9 rOTX    0.5568 ****
363 O12   -15.740973   -9.312779    2.511098 O     9 rOTX   -0.4729 ****
364 H16   -13.797422  -12.392419    4.694083 H     9 rOTX    0.0853 ****
365 H17   -14.854207  -12.177749    6.152913 H     9 rOTX    0.0853 ****
366 H14   -16.089815  -13.445551    4.170359 H     9 rOTX    0.0731 ****
367 H15   -16.840864  -11.871858    4.609233 H     9 rOTX    0.0731 ****
368 H13   -14.728304  -12.194064    2.411422 H     9 rOTX    0.0828 ****
369 H2    -17.456412  -11.194416    1.819254 H     9 rOTX    0.3358 ****
370 O6    -17.851312  -12.983860    0.250722 O     9 rOTX   -0.5854 ****
371 NI    -18.591092   -6.077665    7.238641 N    10 DNI    -1.0000 ****
372 DM1   -18.724103   -6.991301    6.852299 D    10 DNI     0.5000 ****
373 DM2   -19.521088   -6.098445    7.606101 D    10 DNI     0.5000 ****
374 DM3   -18.934258   -5.670298    6.391527 D    10 DNI     0.5000 ****
375 DM4   -17.661074   -6.057883    6.871208 D    10 DNI     0.5000 ****
376 DM5   -18.248503   -6.485078    8.084465 D    10 DNI     0.5000 ****
377 DM6   -18.458635   -5.165074    7.623719 D    10 DNI     0.5000 ****
378 Cl-   -21.052019   -4.093545    7.540189 C    11 Cl-    -1.0000 ****
379 Cl-   -16.153796   -8.016665    6.268752 C    12 Cl-    -1.0000 ****
380 HC1    -1.727663   -1.714561   31.825038 H    13 MOH     0.0372 ****
381 C1     -1.190150   -1.372041   30.940447 C    13 MOH     0.1166 ****
382 HC2    -1.518085   -1.946038   30.073534 H    13 MOH     0.0372 ****
383 HC3    -0.130712   -1.556569   31.118638 H    13 MOH     0.0372 ****
384 O1     -1.450535    0.008655   30.671747 O    13 MOH    -0.6497 ****
385 HO1    -1.191305    0.213596   29.770893 H    13 MOH     0.4215 ****
386 HC1    -3.290089    0.987063   33.056818 H    14 MOH     0.0372 ****
387 C1     -2.877283    1.994620   33.020048 C    14 MOH     0.1166 ****
388 HC2    -2.962731    2.465330   33.999391 H    14 MOH     0.0372 ****
389 HC3    -3.454056    2.582497   32.305870 H    14 MOH     0.0372 ****
390 O1     -1.537830    1.939098   32.588713 O    14 MOH    -0.6497 ****
391 HO1    -1.504344    1.278552   31.892920 H    14 MOH     0.4215 ****
392 HC1    -2.635373    5.102206   35.279961 H    15 MOH     0.0372 ****
393 C1     -1.847290    5.136499   34.527600 C    15 MOH     0.1166 ****
394 HC2    -2.267601    5.528009   33.600583 H    15 MOH     0.0372 ****
395 HC3    -1.449496    4.138740   34.340924 H    15 MOH     0.0372 ****
396 O1     -0.840969    6.036686   34.877618 O    15 MOH    -0.6497 ****
397 HO1    -0.013626    5.571691   34.734075 H    15 MOH     0.4215 ****
398 HC1     0.568343    4.481668   32.561843 H    16 MOH     0.0372 ****
399 C1      0.998469    3.911754   33.386329 C    16 MOH     0.1166 ****
400 HC2     1.773851    3.267946   32.971258 H    16 MOH     0.0372 ****
401 HC3     0.253110    3.263047   33.846656 H    16 MOH     0.0372 ****
402 O1      1.567737    4.806226   34.326074 O    16 MOH    -0.6497 ****
403 HO1     1.982274    4.266930   35.002776 H    16 MOH     0.4215 ****
404 HC1     4.622497    7.310012   30.096869 H    17 MOH     0.0372 ****
405 C1      5.546257    7.498215   29.548861 C    17 MOH     0.1166 ****
406 HC2     6.136887    6.583330   29.586338 H    17 MOH     0.0372 ****
407 HC3     6.068759    8.321652   30.036058 H    17 MOH     0.0372 ****
408 O1      5.273171    7.850533   28.194752 O    17 MOH    -0.6497 ****
409 HO1     6.054903    8.272662   27.831299 H    17 MOH     0.4215 ****
410 HC1    -0.493981   -0.571221   33.749075 H    18 MOH     0.0372 ****
411 C1      0.019861   -0.262177   34.659122 C    18 MOH     0.1166 ****
412 HC2     1.102970   -0.288305   34.543156 H    18 MOH     0.0372 ****
413 HC3    -0.283248   -0.901494   35.489265 H    18 MOH     0.0372 ****
414 O1     -0.419503    0.995228   34.941964 O    18 MOH    -0.6497 ****
415 HO1    -0.751479    1.357344   34.116771 H    18 MOH     0.4215 ****
416 HC1    -1.727663  -26.318216   17.620111 H    19 MOH     0.0372 ****
417 C1     -1.190150  -25.975696   16.735521 C    19 MOH     0.1166 ****
418 HC2    -1.518085  -26.549693   15.868608 H    19 MOH     0.0372 ****
419 HC3    -0.130712  -26.160224   16.913712 H    19 MOH     0.0372 ****
420 O1     -1.450535  -24.595000   16.466820 O    19 MOH    -0.6497 ****
421 HO1    -1.191305  -24.390059   15.565966 H    19 MOH     0.4215 ****
422 HC1     1.420512   -9.948031   26.531778 H    20 MOH     0.0372 ****
423 C1      0.384169   -9.809226   26.838662 C    20 MOH     0.1166 ****
424 HC2    -0.179325   -9.445069   25.980235 H    20 MOH     0.0372 ****
425 HC3     0.314309   -9.059274   27.627086 H    20 MOH     0.0372 ****
426 O1     -0.141220  -11.051934   27.255855 O    20 MOH    -0.6497 ****
427 HO1    -0.903900  -10.899658   27.818005 H    20 MOH     0.4215 ****
428 HC1     7.649544  -25.354505   21.716381 H    21 MOH     0.0372 ****
429 C1      7.462483  -26.340425   22.141352 C    21 MOH     0.1166 ****
430 HC2     7.070462  -26.245711   23.153929 H    21 MOH     0.0372 ****
431 HC3     8.419730  -26.856859   22.209941 H    21 MOH     0.0372 ****
432 O1      6.621284  -27.144265   21.292117 O    21 MOH    -0.6497 ****
433 HO1     5.905369  -27.490460   21.829518 H    21 MOH     0.4215 ****
434 HC1     2.470135  -11.399354   31.200804 H    22 MOH     0.0372 ****
435 C1      3.074043  -10.847810   31.921346 C    22 MOH     0.1166 ****
436 HC2     3.885798  -11.483044   32.274899 H    22 MOH     0.0372 ****
437 HC3     2.425679  -10.562036   32.750075 H    22 MOH     0.0372 ****
438 O1      3.578648   -9.723903   31.265858 O    22 MOH    -0.6497 ****
439 HO1     4.391557   -9.462215   31.704971 H    22 MOH     0.4215 ****
440 HC1     9.174327  -17.806811   18.739461 H    23 MOH     0.0372 ****
441 C1      8.382202  -18.339166   19.265549 C    23 MOH     0.1166 ****
442 HC2     8.409337  -18.081562   20.324088 H    23 MOH     0.0372 ****
443 HC3     8.547901  -19.406736   19.123420 H    23 MOH     0.0372 ****
444 O1      7.153601  -17.923570   18.709763 O    23 MOH    -0.6497 ****
445 HO1     6.459048  -18.282420   19.267670 H    23 MOH     0.4215 ****
446 HC1     9.870611   -9.915779   17.620111 H    24 MOH     0.0372 ****
447 C1     10.408124   -9.573259   16.735521 C    24 MOH     0.1166 ****
448 HC2    10.080189  -10.147256   15.868608 H    24 MOH     0.0372 ****
449 HC3    11.467562   -9.757787   16.913712 H    24 MOH     0.0372 ****
450 O1     10.147739   -8.192563   16.466820 O    24 MOH    -0.6497 ****
451 HO1    10.406969   -7.987623   15.565966 H    24 MOH     0.4215 ****
452 HC1    13.239450  -11.747998   26.262370 H    25 MOH     0.0372 ****
453 C1     13.287947  -12.835571   26.211459 C    25 MOH     0.1166 ****
454 HC2    12.909783  -13.190339   25.253329 H    25 MOH     0.0372 ****
455 HC3    12.681152  -13.282195   26.999176 H    25 MOH     0.0372 ****
456 O1     14.624513  -13.269947   26.284998 O    25 MOH    -0.6497 ****
457 HO1    14.592181  -14.229331   26.306211 H    25 MOH     0.4215 ****
458 HC1     4.329203  -12.772701   20.688955 H    26 MOH     0.0372 ****
459 C1      4.374814  -13.227489   19.699005 C    26 MOH     0.1166 ****
460 HC2     5.292223  -13.806386   19.590111 H    26 MOH     0.0372 ****
461 HC3     4.364421  -12.449776   18.936037 H    26 MOH     0.0372 ****
462 O1      3.271497  -14.063990   19.481923 O    26 MOH    -0.6497 ****
463 HO1     3.530728  -14.951522   19.739310 H    26 MOH     0.4215 ****
464 HC1    12.436356  -17.329568   19.184231 H    27 MOH     0.0372 ****
465 C1     12.634964  -16.368960   19.658700 C    27 MOH     0.1166 ****
466 HC2    13.699598  -16.151772   19.575262 H    27 MOH     0.0372 ****
467 HC3    12.405756  -16.404069   20.723603 H    27 MOH     0.0372 ****
468 O1     11.841685  -15.373242   19.007455 O    27 MOH    -0.6497 ****
469 HO1    11.889027  -14.597162   19.571019 H    27 MOH     0.4215 ****
470 HC1    11.277614  -22.796829   24.196204 H    28 MOH     0.0372 ****
471 C1     11.324956  -22.073413   25.010791 C    28 MOH     0.1166 ****
472 HC2    10.531677  -21.345915   24.839672 H    28 MOH     0.0372 ****
473 HC3    12.285667  -21.559837   24.964122 H    28 MOH     0.0372 ****
474 O1     11.139627  -22.715180   26.304797 O    28 MOH    -0.6497 ****
475 HO1    10.947946  -22.039529   26.960285 H    28 MOH     0.4215 ****
476 HC1    -5.042924  -18.953988   22.774212 H    29 MOH     0.0372 ****
477 C1     -5.000200  -18.712305   23.836287 C    29 MOH     0.1166 ****
478 HC2    -3.963279  -18.774359   24.167213 H    29 MOH     0.0372 ****
479 HC3    -5.597758  -19.414084   24.418236 H    29 MOH     0.0372 ****
480 O1     -5.433790  -17.418566   24.105694 O    29 MOH    -0.6497 ****
481 HO1    -6.203398  -17.227098   23.564758 H    29 MOH     0.4215 ****
482 HC1     5.942897   -9.458133   28.258533 H    30 MOH     0.0372 ****
483 C1      5.277212   -8.599179   28.343385 C    30 MOH     0.1166 ****
484 HC2     4.235095   -8.919245   28.336314 H    30 MOH     0.0372 ****
485 HC3     5.412312   -7.974559   27.460916 H    30 MOH     0.0372 ****
486 O1      5.502956   -7.802278   29.546881 O    30 MOH    -0.6497 ****
487 HO1     5.430210   -8.369335   30.316921 H    30 MOH     0.4215 ****
488 HC1    -1.733552  -16.844569   23.161000 H    31 MOH     0.0372 ****
489 C1     -2.273952  -15.975000   22.787647 C    31 MOH     0.1166 ****
490 HC2    -2.717357  -16.304457   21.847903 H    31 MOH     0.0372 ****
491 HC3    -1.551109  -15.171976   22.641276 H    31 MOH     0.0372 ****
492 O1     -3.265262  -15.636563   23.781132 O    31 MOH    -0.6497 ****
493 HO1    -3.900925  -16.350589   23.863864 H    31 MOH     0.4215 ****
494 HC1    -3.290088  -23.616592   18.851891 H    32 MOH     0.0372 ****
495 C1     -2.877283  -22.609035   18.815122 C    32 MOH     0.1166 ****
496 HC2    -2.962731  -22.138325   19.794465 H    32 MOH     0.0372 ****
497 HC3    -3.454056  -22.021158   18.100944 H    32 MOH     0.0372 ****
498 O1     -1.537830  -22.664557   18.383786 O    32 MOH    -0.6497 ****
499 HO1    -1.504344  -23.325103   17.687993 H    32 MOH     0.4215 ****
500 HC1     2.883518   -5.204186   30.992207 H    33 MOH     0.0372 ****
501 C1      2.429143   -4.906164   30.047513 C    33 MOH     0.1166 ****
502 HC2     1.348344   -5.040886   30.095596 H    33 MOH     0.0372 ****
503 HC3     2.851764   -5.530784   29.259796 H    33 MOH     0.0372 ****
504 O1      2.710890   -3.548739   29.788005 O    33 MOH    -0.6497 ****
505 HO1     2.441268   -3.354413   28.887151 H    33 MOH     0.4215 ****
506 HC1     3.924480   -2.290518   34.115498 H    34 MOH     0.0372 ****
507 C1      3.582689   -2.960045   33.326367 C    34 MOH     0.1166 ****
508 HC2     3.084436   -3.836146   33.742146 H    34 MOH     0.0372 ****
509 HC3     4.455065   -3.278070   32.755732 H    34 MOH     0.0372 ****
510 O1      2.801534   -2.230097   32.404300 O    34 MOH    -0.6497 ****
511 HO1     2.828670   -2.717137   31.577692 H    34 MOH     0.4215 ****
512 HC1     9.454341  -10.960078   31.074939 H    35 MOH     0.0372 ****
513 C1      9.937006  -11.925994   30.927861 C    35 MOH     0.1166 ****
514 HC2     9.163934  -12.680028   30.780076 H    35 MOH     0.0372 ****
515 HC3    10.501655  -12.168493   31.827301 H    35 MOH     0.0372 ****
516 O1     10.845178  -11.898233   29.804975 O    35 MOH    -0.6497 ****
517 HO1    11.556474  -11.294025   30.034078 H    35 MOH     0.4215 ****
518 HC1     4.147338  -19.202611   22.415709 H    36 MOH     0.0372 ****
519 C1      3.986257  -20.215475   22.784112 C    36 MOH     0.1166 ****
520 HC2     3.235124  -20.170568   23.571829 H    36 MOH     0.0372 ****
521 HC3     4.911172  -20.615967   23.199184 H    36 MOH     0.0372 ****
522 O1      3.534769  -21.062182   21.727695 O    36 MOH    -0.6497 ****
523 HO1     3.939492  -21.920320   21.877601 H    36 MOH     0.4215 ****
524 HC1     7.948612   -6.158670   22.202870 H    37 MOH     0.0372 ****
525 C1      7.367798   -5.777366   23.042913 C    37 MOH     0.1166 ****
526 HC2     7.665133   -4.770218   23.334948 H    37 MOH     0.0372 ****
527 HC3     7.575644   -6.432605   23.889320 H    37 MOH     0.0372 ****
528 O1      5.988508   -5.821049   22.757949 O    37 MOH    -0.6497 ****
529 HO1     5.583208   -6.495883   23.307371 H    37 MOH     0.4215 ****
530 HC1     6.881091  -15.156463   27.979933 H    38 MOH     0.0372 ****
531 C1      5.817612  -14.955604   27.848411 C    38 MOH     0.1166 ****
532 HC2     5.235643  -15.876613   27.875281 H    38 MOH     0.0372 ****
533 HC3     5.652490  -14.484894   26.878967 H    38 MOH     0.0372 ****
534 O1      5.367279  -14.065215   28.827754 O    38 MOH    -0.6497 ****
535 HO1     5.477553  -13.170743   28.497535 H    38 MOH     0.4215 ****
536 HC1    10.594031  -12.228914   25.183325 H    39 MOH     0.0372 ****
537 C1     10.189886  -11.883128   24.232267 C    39 MOH     0.1166 ****
538 HC2     9.256888  -12.406502   24.020135 H    39 MOH     0.0372 ****
539 HC3    10.910996  -12.028056   23.428286 H    39 MOH     0.0372 ****
540 O1      9.943357  -10.517129   24.386416 O    39 MOH    -0.6497 ****
541 HO1    10.767813  -10.061524   24.574506 H    39 MOH     0.4215 ****
542 HC1     5.791631  -11.556937   22.719765 H    40 MOH     0.0372 ****
543 C1      5.554340  -11.843528   23.745070 C    40 MOH     0.1166 ****
544 HC2     6.316443  -12.506115   24.154485 H    40 MOH     0.0372 ****
545 HC3     4.601135  -12.372209   23.725978 H    40 MOH     0.0372 ****
546 O1      5.452727  -10.717171   24.582992 O    40 MOH    -0.6497 ****
547 HO1     6.226376  -10.160728   24.463491 H    40 MOH     0.4215 ****
548 HC1    12.833573  -10.341582   23.516675 H    41 MOH     0.0372 ****
549 C1     13.253883   -9.458133   23.997507 C    41 MOH     0.1166 ****
550 HC2    13.507340   -8.716346   23.240196 H    41 MOH     0.0372 ****
551 HC3    14.140694   -9.741049   24.563900 H    41 MOH     0.0372 ****
552 O1     12.248717   -8.961703   24.820580 O    41 MOH    -0.6497 ****
553 HO1    12.604942   -8.765336   25.689614 H    41 MOH     0.4215 ****
554 HC1     7.184777   -8.033755   36.092569 H    42 MOH     0.0372 ****
555 C1      7.142053   -7.159695   35.442738 C    42 MOH     0.1166 ****
556 HC2     7.942838   -6.459549   35.681033 H    42 MOH     0.0372 ****
557 HC3     6.202705   -6.643669   35.637899 H    42 MOH     0.0372 ****
558 O1      7.142631   -7.514055   34.051151 O    42 MOH    -0.6497 ****
559 HO1     7.251750   -6.721645   33.520114 H    42 MOH     0.4215 ****
560 HC1     1.498455  -12.303215   24.706735 H    43 MOH     0.0372 ****
561 C1      0.915908  -13.176050   25.002306 C    43 MOH     0.1166 ****
562 HC2     1.251926  -14.090935   24.515109 H    43 MOH     0.0372 ****
563 HC3    -0.104270  -12.996013   24.665016 H    43 MOH     0.0372 ****
564 O1      0.908980  -13.323019   26.405206 O    43 MOH    -0.6497 ****
565 HO1     0.722496  -12.461207   26.786336 H    43 MOH     0.4215 ****
566 HC1     6.161713  -16.045219   23.291108 H    44 MOH     0.0372 ****
567 C1      6.176147  -15.337725   22.461671 C    44 MOH     0.1166 ****
568 HC2     5.185413  -14.906615   22.320250 H    44 MOH     0.0372 ****
569 HC3     6.515051  -15.830889   21.550918 H    44 MOH     0.0372 ****
570 O1      7.053142  -14.286077   22.768556 O    44 MOH    -0.6497 ****
571 HO1     7.249441  -14.279137   23.708301 H    44 MOH     0.4215 ****
572 HC1    -2.635373  -19.501449   21.075035 H    45 MOH     0.0372 ****
573 C1     -1.847290  -19.467156   20.322673 C    45 MOH     0.1166 ****
574 HC2    -2.267601  -19.075646   19.395656 H    45 MOH     0.0372 ****
575 HC3    -1.449496  -20.464915   20.135997 H    45 MOH     0.0372 ****
576 O1     -0.840969  -18.566969   20.672691 O    45 MOH    -0.6497 ****
577 HO1    -0.013626  -19.031964   20.529148 H    45 MOH     0.4215 ****
578 HC1     0.568343  -20.121987   18.356916 H    46 MOH     0.0372 ****
579 C1      0.998469  -20.691901   19.181403 C    46 MOH     0.1166 ****
580 HC2     1.773851  -21.335709   18.766331 H    46 MOH     0.0372 ****
581 HC3     0.253110  -21.340608   19.641729 H    46 MOH     0.0372 ****
582 O1      1.567737  -19.797429   20.121148 O    46 MOH    -0.6497 ****
583 HO1     1.982274  -20.336725   20.797849 H    46 MOH     0.4215 ****
584 HC1    10.915615  -11.406702   20.642286 H    47 MOH     0.0372 ****
585 C1     11.659242  -11.927627   20.039831 C    47 MOH     0.1166 ****
586 HC2    12.574920  -11.338116   19.991747 H    47 MOH     0.0372 ****
587 HC3    11.323224  -12.048877   19.009576 H    47 MOH     0.0372 ****
588 O1     11.997569  -13.156454   20.623901 O    47 MOH    -0.6497 ****
589 HO1    11.293779  -13.427939   21.217163 H    47 MOH     0.4215 ****
590 HC1    11.631529  -17.083803   25.302119 H    48 MOH     0.0372 ****
591 C1     11.592269  -18.153413   25.097058 C    48 MOH     0.1166 ****
592 HC2    10.814001  -18.581666   25.728505 H    48 MOH     0.0372 ****
593 HC3    12.561063  -18.589831   25.341010 H    48 MOH     0.0372 ****
594 O1     11.303594  -18.445311   23.728807 O    48 MOH    -0.6497 ****
595 HO1    11.733143  -19.259766   23.456571 H    48 MOH     0.4215 ****
596 HC1    15.793070  -18.403669   23.055641 H    49 MOH     0.0372 ****
597 C1     15.270568  -17.474496   23.283330 C    49 MOH     0.1166 ****
598 HC2    14.238266  -17.687602   23.561930 H    49 MOH     0.0372 ****
599 HC3    15.310983  -16.828239   22.407224 H    49 MOH     0.0372 ****
600 O1     15.958192  -16.911114   24.349647 O    49 MOH    -0.6497 ****
601 HO1    16.420650  -17.626365   24.792295 H    49 MOH     0.4215 ****
602 HC1    10.666200  -16.259141   22.674511 H    50 MOH     0.0372 ****
603 C1      9.729160  -16.003170   22.181657 C    50 MOH     0.1166 ****
604 HC2     8.890848  -16.335075   22.794719 H    50 MOH     0.0372 ****
605 HC3     9.710685  -16.502049   21.212921 H    50 MOH     0.0372 ****
606 O1      9.698561  -14.619616   21.964575 O    50 MOH    -0.6497 ****
607 HO1     8.782306  -14.378341   21.812547 H    50 MOH     0.4215 ****
608 HC1     7.336621  -20.969102   20.966848 H    51 MOH     0.0372 ****
609 C1      7.642039  -21.949306   20.599859 C    51 MOH     0.1166 ****
610 HC2     8.591203  -21.869697   20.070236 H    51 MOH     0.0372 ****
611 HC3     6.875318  -22.341633   19.933058 H    51 MOH     0.0372 ****
612 O1      7.795614  -22.869906   21.673954 O    51 MOH    -0.6497 ****
613 HO1     8.644896  -23.303874   21.565767 H    51 MOH     0.4215 ****
614 HC1    -3.536617   -9.725127   30.340255 H    52 MOH     0.0372 ****
615 C1     -2.674056   -9.262174   29.860837 C    52 MOH     0.1166 ****
616 HC2    -1.887127   -9.147456   30.606834 H    52 MOH     0.0372 ****
617 HC3    -2.991021   -8.270130   29.538396 H    52 MOH     0.0372 ****
618 O1     -2.291273  -10.049685   28.701889 O    52 MOH    -0.6497 ****
619 HO1    -2.985248  -10.003553   28.040744 H    52 MOH     0.4215 ****
620 HC1     4.622497  -17.293642   15.891942 H    53 MOH     0.0372 ****
621 C1      5.546257  -17.105440   15.343934 C    53 MOH     0.1166 ****
622 HC2     6.136887  -18.020324   15.381411 H    53 MOH     0.0372 ****
623 HC3     6.068759  -16.282003   15.831131 H    53 MOH     0.0372 ****
624 O1      5.273171  -16.753122   13.989825 O    53 MOH    -0.6497 ****
625 HO1     6.054903  -16.330993   13.626372 H    53 MOH     0.4215 ****
626 HC1     8.730344   -8.037837   25.913060 H    54 MOH     0.0372 ****
627 C1      7.715362   -8.421182   25.809115 C    54 MOH     0.1166 ****
628 HC2     6.994252   -7.603869   25.830328 H    54 MOH     0.0372 ****
629 HC3     7.480381   -9.116021   26.615217 H    54 MOH     0.0372 ****
630 O1      7.587768   -9.133167   24.626832 O    54 MOH    -0.6497 ****
631 HO1     8.308301   -9.766360   24.595012 H    54 MOH     0.4215 ****
632 HC1     8.263845  -22.371843   25.985892 H    55 MOH     0.0372 ****
633 C1      7.765592  -23.147515   25.406064 C    55 MOH     0.1166 ****
634 HC2     8.492476  -23.892976   25.083623 H    55 MOH     0.0372 ****
635 HC3     7.303134  -22.673538   24.539858 H    55 MOH     0.0372 ****
636 O1      6.790447  -23.778258   26.202973 O    55 MOH    -0.6497 ****
637 HO1     7.262142  -24.147315   26.952507 H    55 MOH     0.4215 ****
638 HC1     7.588345  -10.673080   21.692339 H    56 MOH     0.0372 ****
639 C1      8.181284  -11.011518   20.843104 C    56 MOH     0.1166 ****
640 HC2     8.548479  -12.007235   21.091298 H    56 MOH     0.0372 ****
641 HC3     9.028257  -10.341582   20.691076 H    56 MOH     0.0372 ****
642 O1      7.377035  -11.062549   19.672842 O    56 MOH    -0.6497 ****
643 HO1     7.784067  -11.712888   19.095136 H    56 MOH     0.4215 ****
644 HC1     3.344821  -10.352197   27.354850 H    57 MOH     0.0372 ****
645 C1      3.526109  -11.390372   27.634157 C    57 MOH     0.1166 ****
646 HC2     2.866775  -12.027648   27.045137 H    57 MOH     0.0372 ****
647 HC3     3.301520  -11.545098   28.689868 H    57 MOH     0.0372 ****
648 O1      4.856324  -11.785965   27.393034 O    57 MOH    -0.6497 ****
649 HO1     5.035880  -11.677779   26.456118 H    57 MOH     0.4215 ****
650 HC1    -0.933922   -4.667747   28.684211 H    58 MOH     0.0372 ****
651 C1     -1.841517   -4.731434   29.283837 C    58 MOH     0.1166 ****
652 HC2    -2.452353   -5.578141   28.971296 H    58 MOH     0.0372 ****
653 HC3    -2.390577   -3.799403   29.151608 H    58 MOH     0.0372 ****
654 O1     -1.469703   -4.914738   30.608248 O    58 MOH    -0.6497 ****
655 HO1    -0.942582   -5.717354   30.606834 H    58 MOH     0.4215 ****
656 HC1     6.602808  -18.739250   23.660924 H    59 MOH     0.0372 ****
657 C1      7.530033  -18.916021   24.204690 C    59 MOH     0.1166 ****
658 HC2     7.464215  -19.840703   24.778153 H    59 MOH     0.0372 ****
659 HC3     7.753467  -18.079520   24.867249 H    59 MOH     0.0372 ****
660 O1      8.533468  -19.018083   23.274137 O    59 MOH    -0.6497 ****
661 HO1     9.343490  -18.677196   23.660924 H    59 MOH     0.4215 ****
662 HC1     4.505872  -18.595138   18.388029 H    60 MOH     0.0372 ****
663 C1      4.785887  -19.503490   18.921895 C    60 MOH     0.1166 ****
664 HC2     5.594178  -19.999104   18.384494 H    60 MOH     0.0372 ****
665 HC3     3.955080  -20.209352   18.945229 H    60 MOH     0.0372 ****
666 O1      5.223519  -19.242211   20.241356 O    60 MOH    -0.6497 ****
667 HO1     4.875954  -19.946848   20.792899 H    60 MOH     0.4215 ****
668 HC1    15.449547  -16.296700   27.813763 H    61 MOH     0.0372 ****
669 C1     14.439761  -16.617583   27.557790 C    61 MOH     0.1166 ****
670 HC2    13.742322  -16.186881   28.276918 H    61 MOH     0.0372 ****
671 HC3    14.358355  -17.703932   27.592438 H    61 MOH     0.0372 ****
672 O1     14.084691  -16.158304   26.285705 O    61 MOH    -0.6497 ****
673 HO1    14.683403  -16.565736   25.656380 H    61 MOH     0.4215 ****
674 HC1    11.252787   -9.188281   29.087969 H    62 MOH     0.0372 ****
675 C1     10.760308   -8.751863   28.218935 C    62 MOH     0.1166 ****
676 HC2     9.818072   -8.264415   28.469251 H    62 MOH     0.0372 ****
677 HC3    10.508006   -9.586323   27.564154 H    62 MOH     0.0372 ****
678 O1     11.598043   -7.826773   27.518899 O    62 MOH    -0.6497 ****
679 HO1    11.057066   -7.127035   27.146961 H    62 MOH     0.4215 ****
680 HC1    10.128109  -16.024398   28.733709 H    63 MOH     0.0372 ****
681 C1     10.791485  -16.846202   29.003116 C    63 MOH     0.1166 ****
682 HC2    11.807621  -16.459999   29.080898 H    63 MOH     0.0372 ****
683 HC3    10.777628  -17.628814   28.244391 H    63 MOH     0.0372 ****
684 O1     10.413320  -17.273230   30.290051 O    63 MOH    -0.6497 ****
685 HO1    10.467014  -16.504090   30.861393 H    63 MOH     0.4215 ****
686 HC1    13.908021   -9.825148   32.837049 H    64 MOH     0.0372 ****
687 C1     13.568539  -10.571018   32.117922 C    64 MOH     0.1166 ****
688 HC2    13.062203  -11.408335   32.599461 H    64 MOH     0.0372 ****
689 HC3    14.455349  -10.967835   31.622947 H    64 MOH     0.0372 ****
690 O1     12.727340   -9.950480   31.163327 O    64 MOH    -0.6497 ****
691 HO1    13.256770   -9.265440   30.747549 H    64 MOH     0.4215 ****
692 HC1     4.614414  -17.061349   23.856086 H    65 MOH     0.0372 ****
693 C1      3.983948  -17.374884   24.687643 C    65 MOH     0.1166 ****
694 HC2     3.007648  -17.687602   24.317120 H    65 MOH     0.0372 ****
695 HC3     3.813629  -16.547773   25.377780 H    65 MOH     0.0372 ****
696 O1      4.586124  -18.428981   25.383437 O    65 MOH    -0.6497 ****
697 HO1     3.935450  -18.783340   25.992963 H    65 MOH     0.4215 ****
698 HC1     7.276576  -12.328935   26.999883 H    66 MOH     0.0372 ****
699 C1      7.933023  -12.053367   27.825076 C    66 MOH     0.1166 ****
700 HC2     7.386273  -12.089293   28.768357 H    66 MOH     0.0372 ****
701 HC3     8.279434  -11.030705   27.674463 H    66 MOH     0.0372 ****
702 O1      9.051928  -12.925386   27.890130 O    66 MOH    -0.6497 ****
703 HO1     9.656991  -12.598787   28.560467 H    66 MOH     0.4215 ****
704 HC1    11.053024   -7.614075   34.767451 H    67 MOH     0.0372 ****
705 C1     10.741255   -8.032938   35.724873 C    67 MOH     0.1166 ****
706 HC2    10.214134   -7.286660   36.317429 H    67 MOH     0.0372 ****
707 HC3    11.633839   -8.366477   36.253082 H    67 MOH     0.0372 ****
708 O1      9.926614   -9.147048   35.497892 O    67 MOH    -0.6497 ****
709 HO1     9.240722   -8.905773   34.872102 H    67 MOH     0.4215 ****
710 HC1     3.732800   -2.219891   27.047966 H    68 MOH     0.0372 ****
711 C1      2.825206   -1.840220   26.578447 C    68 MOH     0.1166 ****
712 HC2     2.955687   -1.860224   25.495866 H    68 MOH     0.0372 ****
713 HC3     2.682023   -0.809393   26.900180 H    68 MOH     0.0372 ****
714 O1      1.684939   -2.633446   26.952506 O    68 MOH    -0.6497 ****
715 HO1     0.911867   -2.128443   26.690170 H    68 MOH     0.4215 ****
716 HC1     5.890358  -10.689818   33.559712 H    69 MOH     0.0372 ****
717 C1      6.472327  -10.447318   32.670172 C    69 MOH     0.1166 ****
718 HC2     6.435954  -11.269122   31.955287 H    69 MOH     0.0372 ****
719 HC3     7.499433  -10.304023   33.007462 H    69 MOH     0.0372 ****
720 O1      6.006405   -9.202978   32.138428 O    69 MOH    -0.6497 ****
721 HO1     6.422098   -8.525694   32.676536 H    69 MOH     0.4215 ****
722 HC1     3.106953  -15.360995   21.895279 H    70 MOH     0.0372 ****
723 C1      2.973585  -16.383657   21.542432 C    70 MOH     0.1166 ****
724 HC2     1.974769  -16.461224   21.113926 H    70 MOH     0.0372 ****
725 HC3     3.046908  -17.100541   22.359848 H    70 MOH     0.0372 ****
726 O1      3.893881  -16.660858   20.530563 O    70 MOH    -0.6497 ****
727 HO1     4.009928  -17.608810   20.438639 H    70 MOH     0.4215 ****
728 HC1     5.293955  -24.635580   20.853003 H    71 MOH     0.0372 ****
729 C1      4.557256  -24.289793   21.577788 C    71 MOH     0.1166 ****
730 HC2     4.286479  -25.097717   22.258732 H    71 MOH     0.0372 ****
731 HC3     3.648507  -23.990139   21.057357 H    71 MOH     0.0372 ****
732 O1      4.997197  -23.208344   22.371869 O    71 MOH    -0.6497 ****
733 HO1     5.944629  -23.276929   22.507633 H    71 MOH     0.4215 ****
734 HC1     6.242542   -8.080295   21.205143 H    72 MOH     0.0372 ****
735 C1      5.394992   -8.744923   21.374848 C    72 MOH     0.1166 ****
736 HC2     4.529544   -8.101116   21.531119 H    72 MOH     0.0372 ****
737 HC3     5.627664   -9.346681   22.253075 H    72 MOH     0.0372 ****
738 O1      5.261624   -9.446702   20.159332 O    72 MOH    -0.6497 ****
739 HO1     6.107442   -9.852501   19.954271 H    72 MOH     0.4215 ****
740 HC1    -4.391095  -13.390380   27.303938 H    73 MOH     0.0372 ****
741 C1     -4.557372  -12.319953   27.422732 C    73 MOH     0.1166 ****
742 HC2    -4.204034  -11.999070   28.402782 H    73 MOH     0.0372 ****
743 HC3    -5.624316  -12.106848   27.350607 H    73 MOH     0.0372 ****
744 O1     -3.870326  -11.605519   26.412984 O    73 MOH    -0.6497 ****
745 HO1    -3.960969  -12.135425   25.618196 H    73 MOH     0.4215 ****
746 HC1     2.272104   -7.074371   24.455005 H    74 MOH     0.0372 ****
747 C1      3.143326   -7.729610   24.435913 C    74 MOH     0.1166 ****
748 HC2     3.142748   -8.301157   23.508189 H    74 MOH     0.0372 ****
749 HC3     3.115613   -8.438737   25.263935 H    74 MOH     0.0372 ****
750 O1      4.321697   -6.944956   24.509452 O    74 MOH    -0.6497 ****
751 HO1     4.292253   -6.434238   25.321918 H    74 MOH     0.4215 ****
752 HC1    16.020546  -12.702890   24.410458 H    75 MOH     0.0372 ****
753 C1     15.573677  -12.288927   23.506775 C    75 MOH     0.1166 ****
754 HC2    14.545993  -11.970085   23.678602 H    75 MOH     0.0372 ****
755 HC3    15.604276  -13.061332   22.737443 H    75 MOH     0.0372 ****
756 O1     16.384277  -11.224623   23.118574 O    75 MOH    -0.6497 ****
757 HO1    16.566142  -10.678387   23.886492 H    75 MOH     0.4215 ****
758 HC1     9.246495  -14.955196   19.004626 H    76 MOH     0.0372 ****
759 C1      8.322158  -14.439987   18.742997 C    76 MOH     0.1166 ****
760 HC2     7.609130  -14.486935   19.566776 H    76 MOH     0.0372 ****
761 HC3     7.886258  -14.886202   17.849921 H    76 MOH     0.0372 ****
762 O1      8.560026  -13.090726   18.463690 O    76 MOH    -0.6497 ****
763 HO1     9.064630  -13.060516   17.647688 H    76 MOH     0.4215 ****
764 HC1     0.968447   -7.761861   29.056856 H    77 MOH     0.0372 ****
765 C1      0.597788   -8.158679   30.001551 C    77 MOH     0.1166 ****
766 HC2     1.452267   -8.281561   30.666938 H    77 MOH     0.0372 ****
767 HC3     0.126093   -9.134392   29.885585 H    77 MOH     0.0372 ****
768 O1     -0.257268   -7.223382   30.563701 O    77 MOH    -0.6497 ****
769 HO1    -0.072515   -7.221749   31.505567 H    77 MOH     0.4215 ****
770 HC1    -0.493981  -25.174876   19.544149 H    78 MOH     0.0372 ****
771 C1      0.019861  -24.865832   20.454195 C    78 MOH     0.1166 ****
772 HC2     1.102970  -24.891960   20.338230 H    78 MOH     0.0372 ****
773 HC3    -0.283248  -25.505149   21.284339 H    78 MOH     0.0372 ****
774 O1     -0.419503  -23.608427   20.737038 O    78 MOH    -0.6497 ****
775 HO1    -0.751479  -23.246311   19.911844 H    78 MOH     0.4215 ****
776 HC1     0.966138   -6.348097   25.981649 H    79 MOH     0.0372 ****
777 C1      1.532518   -6.043136   26.861997 C    79 MOH     0.1166 ****
778 HC2     1.918188   -6.936791   27.353436 H    79 MOH     0.0372 ****
779 HC3     0.878380   -5.519353   27.558497 H    79 MOH     0.0372 ****
780 O1      2.627174   -5.228681   26.456825 O    79 MOH    -0.6497 ****
781 HO1     2.276145   -4.353396   26.280048 H    79 MOH     0.4215 ****
782 HC1     1.357581  -21.966044   23.277673 H    80 MOH     0.0372 ****
783 C1      0.475390  -21.382657   23.538595 C    80 MOH     0.1166 ****
784 HC2     0.779654  -20.384082   23.849722 H    80 MOH     0.0372 ****
785 HC3    -0.059814  -21.872555   24.351768 H    80 MOH     0.0372 ****
786 O1     -0.345602  -21.327544   22.371162 O    80 MOH    -0.6497 ****
787 HO1    -0.436246  -22.216300   22.018315 H    80 MOH     0.4215 ****
788 HC1     8.200914   -8.220732   31.189490 H    81 MOH     0.0372 ****
789 C1      9.146614   -7.877804   31.609512 C    81 MOH     0.1166 ****
790 HC2     9.032876   -6.903315   32.085395 H    81 MOH     0.0372 ****
791 HC3     9.876384   -7.764311   30.807653 H    81 MOH     0.0372 ****
792 O1      9.588287   -8.800037   32.581784 O    81 MOH    -0.6497 ****
793 HO1    10.419671   -9.188281   32.299648 H    81 MOH     0.4215 ****
794 HC1     8.118930  -16.286494   26.260249 H    82 MOH     0.0372 ****
795 C1      8.900662  -15.613292   25.908817 C    82 MOH     0.1166 ****
796 HC2     9.460115  -16.048077   25.080795 H    82 MOH     0.0372 ****
797 HC3     9.585977  -15.408352   26.730475 H    82 MOH     0.0372 ****
798 O1      8.326776  -14.413859   25.463340 O    82 MOH    -0.6497 ****
799 HO1     8.521921  -13.770460   26.149233 H    82 MOH     0.4215 ****
800 HC1    13.018786    6.454406   26.531778 H    83 MOH     0.0372 ****
801 C1     11.982443    6.593210   26.838662 C    83 MOH     0.1166 ****
802 HC2    11.418949    6.957368   25.980235 H    83 MOH     0.0372 ****
803 HC3    11.912583    7.343162   27.627086 H    83 MOH     0.0372 ****
804 O1     11.457054    5.350502   27.255855 O    83 MOH    -0.6497 ****
805 HO1    10.694374    5.502779   27.818005 H    83 MOH     0.4215 ****
806 HC1     7.517216   -4.086565   30.623098 H    84 MOH     0.0372 ****
807 C1      6.716431   -4.480525   31.248887 C    84 MOH     0.1166 ****
808 HC2     6.150628   -5.210881   30.669767 H    84 MOH     0.0372 ****
809 HC3     6.043818   -3.703628   31.610219 H    84 MOH     0.0372 ****
810 O1      7.213529   -5.221495   32.293284 O    84 MOH    -0.6497 ****
811 HO1     7.757971   -4.625453   32.812300 H    84 MOH     0.4215 ****
812 HC1    19.247819   -8.952068   21.716381 H    85 MOH     0.0372 ****
813 C1     19.060757   -9.937988   22.141352 C    85 MOH     0.1166 ****
814 HC2    18.668736   -9.843274   23.153929 H    85 MOH     0.0372 ****
815 HC3    20.018004  -10.454422   22.209941 H    85 MOH     0.0372 ****
816 O1     18.219558  -10.741829   21.292117 O    85 MOH    -0.6497 ****
817 HO1    17.503643  -11.088023   21.829518 H    85 MOH     0.4215 ****
818 HC1    20.772601   -1.404374   18.739461 H    86 MOH     0.0372 ****
819 C1     19.980476   -1.936730   19.265549 C    86 MOH     0.1166 ****
820 HC2    20.007612   -1.679125   20.324088 H    86 MOH     0.0372 ****
821 HC3    20.146176   -3.004299   19.123420 H    86 MOH     0.0372 ****
822 O1     18.751875   -1.521133   18.709763 O    86 MOH    -0.6497 ****
823 HO1    18.057322   -1.879983   19.267670 H    86 MOH     0.4215 ****
824 HC1    21.468885    6.486657   17.620111 H    87 MOH     0.0372 ****
825 C1     22.006398    6.829178   16.735521 C    87 MOH     0.1166 ****
826 HC2    21.678463    6.255180   15.868608 H    87 MOH     0.0372 ****
827 HC3    23.065836    6.644649   16.913712 H    87 MOH     0.0372 ****
828 O1     21.746013    8.209873   16.466820 O    87 MOH    -0.6497 ****
829 HO1    22.005243    8.414814   15.565966 H    87 MOH     0.4215 ****
830 HC1    15.927477    3.629736   20.688955 H    88 MOH     0.0372 ****
831 C1     15.973088    3.174947   19.699005 C    88 MOH     0.1166 ****
832 HC2    16.890497    2.596051   19.590111 H    88 MOH     0.0372 ****
833 HC3    15.962696    3.952660   18.936037 H    88 MOH     0.0372 ****
834 O1     14.869771    2.338446   19.481923 O    88 MOH    -0.6497 ****
835 HO1    15.129002    1.450915   19.739310 H    88 MOH     0.4215 ****
836 HC1    24.034630   -0.927132   19.184231 H    89 MOH     0.0372 ****
837 C1     24.233238    0.033476   19.658700 C    89 MOH     0.1166 ****
838 HC2    25.297872    0.250665   19.575262 H    89 MOH     0.0372 ****
839 HC3    24.004030   -0.001633   20.723603 H    89 MOH     0.0372 ****
840 O1     23.439959    1.029194   19.007455 O    89 MOH    -0.6497 ****
841 HO1    23.487302    1.805274   19.571019 H    89 MOH     0.4215 ****
842 HC1     6.729133    2.468269   31.789824 H    90 MOH     0.0372 ****
843 C1      7.769518    2.495622   31.463848 C    90 MOH     0.1166 ****
844 HC2     8.353796    1.855897   32.126407 H    90 MOH     0.0372 ****
845 HC3     8.110732    3.529307   31.517588 H    90 MOH     0.0372 ****
846 O1      7.836490    2.013481   30.140851 O    90 MOH    -0.6497 ****
847 HO1     7.241820    1.260671   30.097010 H    90 MOH     0.4215 ****
848 HC1     9.609533   -2.213930   27.629915 H    91 MOH     0.0372 ****
849 C1     10.524056   -1.907744   27.122212 C    91 MOH     0.1166 ****
850 HC2    11.119304   -1.253322   27.759315 H    91 MOH     0.0372 ****
851 HC3    10.248660   -1.361508   26.219944 H    91 MOH     0.0372 ****
852 O1     11.226114   -3.047165   26.724111 O    91 MOH    -0.6497 ****
853 HO1    12.160844   -2.848348   26.813914 H    91 MOH     0.4215 ****
854 HC1    22.875888   -6.394393   24.196204 H    92 MOH     0.0372 ****
855 C1     22.923230   -5.670977   25.010791 C    92 MOH     0.1166 ****
856 HC2    22.129951   -4.943478   24.839672 H    92 MOH     0.0372 ****
857 HC3    23.883941   -5.157400   24.964122 H    92 MOH     0.0372 ****
858 O1     22.737901   -6.312743   26.304797 O    92 MOH    -0.6497 ****
859 HO1    22.546221   -5.637092   26.960285 H    92 MOH     0.4215 ****
860 HC1     6.555350   -2.551552   22.774212 H    93 MOH     0.0372 ****
861 C1      6.598074   -2.309869   23.836287 C    93 MOH     0.1166 ****
862 HC2     7.634995   -2.371922   24.167213 H    93 MOH     0.0372 ****
863 HC3     6.000517   -3.011647   24.418236 H    93 MOH     0.0372 ****
864 O1      6.164484   -1.016130   24.105694 O    93 MOH    -0.6497 ****
865 HO1     5.394876   -0.824661   23.564758 H    93 MOH     0.4215 ****
866 HC1     3.952078    1.386003   30.489454 H    94 MOH     0.0372 ****
867 C1      3.517333    0.500513   30.952609 C    94 MOH     0.1166 ****
868 HC2     3.105105   -0.174322   30.202369 H    94 MOH     0.0372 ****
869 HC3     2.695186    0.786695   31.609512 H    94 MOH     0.0372 ****
870 O1      4.422618   -0.202083   31.748105 O    94 MOH    -0.6497 ****
871 HO1     3.896075   -0.919783   32.108729 H    94 MOH     0.4215 ****
872 HC1     9.864722   -0.442133   23.161000 H    95 MOH     0.0372 ****
873 C1      9.324322    0.427436   22.787647 C    95 MOH     0.1166 ****
874 HC2     8.880917    0.097980   21.847903 H    95 MOH     0.0372 ****
875 HC3    10.047165    1.230460   22.641276 H    95 MOH     0.0372 ****
876 O1      8.333012    0.765874   23.781132 O    95 MOH    -0.6497 ****
877 HO1     7.697349    0.051848   23.863864 H    95 MOH     0.4215 ****
878 HC1     8.308186   -7.214155   18.851891 H    96 MOH     0.0372 ****
879 C1      8.720991   -6.206599   18.815122 C    96 MOH     0.1166 ****
880 HC2     8.635543   -5.735888   19.794465 H    96 MOH     0.0372 ****
881 HC3     8.144218   -5.618721   18.100944 H    96 MOH     0.0372 ****
882 O1     10.060444   -6.262120   18.383786 O    96 MOH    -0.6497 ****
883 HO1    10.093930   -6.922666   17.687993 H    96 MOH     0.4215 ****
884 HC1    18.289417   -2.594009   29.784469 H    97 MOH     0.0372 ****
885 C1     18.149121   -2.748327   28.715324 C    97 MOH     0.1166 ****
886 HC2    17.952822   -1.793843   28.226006 H    97 MOH     0.0372 ****
887 HC3    17.314850   -3.427244   28.539254 H    97 MOH     0.0372 ****
888 O1     19.324606   -3.302728   28.163780 O    97 MOH    -0.6497 ****
889 HO1    19.971238   -3.403566   28.865937 H    97 MOH     0.4215 ****
890 HC1    15.745612   -2.800175   22.415709 H    98 MOH     0.0372 ****
891 C1     15.584531   -3.813039   22.784112 C    98 MOH     0.1166 ****
892 HC2    14.833398   -3.768132   23.571829 H    98 MOH     0.0372 ****
893 HC3    16.509446   -4.213530   23.199184 H    98 MOH     0.0372 ****
894 O1     15.133043   -4.659746   21.727695 O    98 MOH    -0.6497 ****
895 HO1    15.537766   -5.517884   21.877601 H    98 MOH     0.4215 ****
896 HC1    19.546886   10.243766   22.202870 H    99 MOH     0.0372 ****
897 C1     18.966072   10.625070   23.042913 C    99 MOH     0.1166 ****
898 HC2    19.263407   11.632219   23.334948 H    99 MOH     0.0372 ****
899 HC3    19.173918    9.969832   23.889320 H    99 MOH     0.0372 ****
900 O1     17.586782   10.581388   22.757949 O    99 MOH    -0.6497 ****
901 HO1    17.181482    9.906553   23.307371 H    99 MOH     0.4215 ****
902 HC1     8.124588   -0.113085   33.228786 H    100 MOH     0.0372 ****
903 C1      7.733145   -0.882224   32.564106 C    100 MOH     0.1166 ****
904 HC2     8.232553   -0.848340   31.596077 H    100 MOH     0.0372 ****
905 HC3     6.661583   -0.719742   32.439655 H    100 MOH     0.0372 ****
906 O1      7.874018   -2.149019   33.148883 O    100 MOH    -0.6497 ****
907 HO1     7.427726   -2.149427   33.998118 H    100 MOH     0.4215 ****
908 HC1    18.479365    1.245974   27.979933 H    101 MOH     0.0372 ****
909 C1     17.415886    1.446832   27.848411 C    101 MOH     0.1166 ****
910 HC2    16.833917    0.525824   27.875281 H    101 MOH     0.0372 ****
911 HC3    17.250764    1.917542   26.878967 H    101 MOH     0.0372 ****
912 O1     16.965553    2.337222   28.827754 O    101 MOH    -0.6497 ****
913 HO1    17.075827    3.231694   28.497535 H    101 MOH     0.4215 ****
914 HC1    22.192305    4.173522   25.183325 H    102 MOH     0.0372 ****
915 C1     21.788160    4.519309   24.232267 C    102 MOH     0.1166 ****
916 HC2    20.855162    3.995934   24.020135 H    102 MOH     0.0372 ****
917 HC3    22.509270    4.374381   23.428286 H    102 MOH     0.0372 ****
918 O1     21.541631    5.885308   24.386416 O    102 MOH    -0.6497 ****
919 HO1    22.366087    6.340913   24.574506 H    102 MOH     0.4215 ****
920 HC1    17.959750   -7.082291   30.386924 H    103 MOH     0.0372 ****
921 C1     17.773843   -6.496455   29.486777 C    103 MOH     0.1166 ****
922 HC2    17.791741   -7.120258   28.592994 H    103 MOH     0.0372 ****
923 HC3    18.521512   -5.710985   29.377883 H    103 MOH     0.0372 ****
924 O1     16.531385   -5.908169   29.616178 O    103 MOH    -0.6497 ****
925 HO1    16.232895   -5.797534   28.710374 H    103 MOH     0.4215 ****
926 HC1    17.389905    4.845499   22.719765 H    104 MOH     0.0372 ****
927 C1     17.152614    4.558909   23.745070 C    104 MOH     0.1166 ****
928 HC2    17.914717    3.896322   24.154485 H    104 MOH     0.0372 ****
929 HC3    16.199409    4.030227   23.725978 H    104 MOH     0.0372 ****
930 O1     17.051001    5.685266   24.582992 O    104 MOH    -0.6497 ****
931 HO1    17.824650    6.241708   24.463491 H    104 MOH     0.4215 ****
932 HC1    15.081082  -10.136805   29.071706 H    105 MOH     0.0372 ****
933 C1     14.674050   -9.136188   28.926749 C    105 MOH     0.1166 ****
934 HC2    13.628468   -9.181912   28.621279 H    105 MOH     0.0372 ****
935 HC3    15.230615   -8.678542   28.110040 H    105 MOH     0.0372 ****
936 O1     14.828779   -8.312343   30.083575 O    105 MOH    -0.6497 ****
937 HO1    15.111681   -7.432160   29.823360 H    105 MOH     0.4215 ****
938 HC1    14.486988   -5.731398   31.294142 H    106 MOH     0.0372 ****
939 C1     14.575323   -4.745478   31.750226 C    106 MOH     0.1166 ****
940 HC2    13.974301   -4.713635   32.658151 H    106 MOH     0.0372 ****
941 HC3    14.223139   -4.010223   31.026856 H    106 MOH     0.0372 ****
942 O1     15.915353   -4.541762   32.057817 O    106 MOH    -0.6497 ****
943 HO1    16.400327   -5.008390   31.374045 H    106 MOH     0.4215 ****
944 HC1    13.096729    4.099221   24.706735 H    107 MOH     0.0372 ****
945 C1     12.514182    3.226386   25.002306 C    107 MOH     0.1166 ****
946 HC2    12.850200    2.311502   24.515109 H    107 MOH     0.0372 ****
947 HC3    11.494004    3.406424   24.665016 H    107 MOH     0.0372 ****
948 O1     12.507254    3.079417   26.405206 O    107 MOH    -0.6497 ****
949 HO1    12.320770    3.941229   26.786336 H    107 MOH     0.4215 ****
950 HC1    12.265922    1.084716   28.977660 H    108 MOH     0.0372 ****
951 C1     13.297647    0.800983   28.771892 C    108 MOH     0.1166 ****
952 HC2    13.568424   -0.024903   29.428794 H    108 MOH     0.0372 ****
953 HC3    13.946011    1.651773   28.982610 H    108 MOH     0.0372 ****
954 O1     13.435633    0.481733   27.410005 O    108 MOH    -0.6497 ****
955 HO1    13.138875    1.274551   26.957456 H    108 MOH     0.4215 ****
956 HC1    17.759987    0.357217   23.291108 H    109 MOH     0.0372 ****
957 C1     17.774421    1.064712   22.461671 C    109 MOH     0.1166 ****
958 HC2    16.783688    1.495822   22.320250 H    109 MOH     0.0372 ****
959 HC3    18.113325    0.571548   21.550918 H    109 MOH     0.0372 ****
960 O1     18.651416    2.116359   22.768556 O    109 MOH    -0.6497 ****
961 HO1    18.847715    2.123300   23.708301 H    109 MOH     0.4215 ****
962 HC1     8.962901   -3.099013   21.075035 H    110 MOH     0.0372 ****
963 C1      9.750984   -3.064720   20.322673 C    110 MOH     0.1166 ****
964 HC2     9.330673   -2.673210   19.395656 H    110 MOH     0.0372 ****
965 HC3    10.148778   -4.062479   20.135997 H    110 MOH     0.0372 ****
966 O1     10.757305   -2.164532   20.672691 O    110 MOH    -0.6497 ****
967 HO1    11.584648   -2.629527   20.529148 H    110 MOH     0.4215 ****
968 HC1    12.166618   -3.719550   18.356916 H    111 MOH     0.0372 ****
969 C1     12.596743   -4.289465   19.181403 C    111 MOH     0.1166 ****
970 HC2    13.372125   -4.933272   18.766331 H    111 MOH     0.0372 ****
971 HC3    11.851384   -4.938171   19.641729 H    111 MOH     0.0372 ****
972 O1     13.166011   -3.394993   20.121148 O    111 MOH    -0.6497 ****
973 HO1    13.580548   -3.934289   20.797849 H    111 MOH     0.4215 ****
974 HC1    22.513889    4.995734   20.642286 H    112 MOH     0.0372 ****
975 C1     23.257516    4.474810   20.039831 C    112 MOH     0.1166 ****
976 HC2    24.173194    5.064320   19.991747 H    112 MOH     0.0372 ****
977 HC3    22.921498    4.353560   19.009576 H    112 MOH     0.0372 ****
978 O1     23.595843    3.245982   20.623901 O    112 MOH    -0.6497 ****
979 HO1    22.892053    2.974497   21.217163 H    112 MOH     0.4215 ****
980 HC1    23.229803   -0.681366   25.302119 H    113 MOH     0.0372 ****
981 C1     23.190543   -1.750977   25.097058 C    113 MOH     0.1166 ****
982 HC2    22.412275   -2.179229   25.728505 H    113 MOH     0.0372 ****
983 HC3    24.159337   -2.187394   25.341010 H    113 MOH     0.0372 ****
984 O1     22.901868   -2.042874   23.728807 O    113 MOH    -0.6497 ****
985 HO1    23.331417   -2.857330   23.456571 H    113 MOH     0.4215 ****
986 HC1    27.391344   -2.001233   23.055641 H    114 MOH     0.0372 ****
987 C1     26.868842   -1.072060   23.283330 C    114 MOH     0.1166 ****
988 HC2    25.836540   -1.285165   23.561930 H    114 MOH     0.0372 ****
989 HC3    26.909257   -0.425803   22.407224 H    114 MOH     0.0372 ****
990 O1     27.556466   -0.508677   24.349647 O    114 MOH    -0.6497 ****
991 HO1    28.018924   -1.223928   24.792295 H    114 MOH     0.4215 ****
992 HC1    22.264474    0.143295   22.674511 H    115 MOH     0.0372 ****
993 C1     21.327434    0.399267   22.181657 C    115 MOH     0.1166 ****
994 HC2    20.489122    0.067361   22.794719 H    115 MOH     0.0372 ****
995 HC3    21.308959   -0.099612   21.212921 H    115 MOH     0.0372 ****
996 O1     21.296835    1.782820   21.964575 O    115 MOH    -0.6497 ****
997 HO1    20.380580    2.024095   21.812547 H    115 MOH     0.4215 ****
998 HC1    12.317883   -0.558892   31.916396 H    116 MOH     0.0372 ****
999 C1     11.308098   -0.159625   32.008320 C    116 MOH     0.1166 ****
1000 HC2    10.695529   -0.901004   32.521679 H    116 MOH     0.0372 ****
1001 HC3    10.906839    0.032252   31.012714 H    116 MOH     0.0372 ****
1002 O1     11.376225    1.029194   32.770581 O    116 MOH    -0.6497 ****
1003 HO1    11.710511    1.722400   32.196410 H    116 MOH     0.4215 ****
1004 HC1    18.934895   -4.566665   20.966848 H    117 MOH     0.0372 ****
1005 C1     19.240313   -5.546869   20.599859 C    117 MOH     0.1166 ****
1006 HC2    20.189477   -5.467261   20.070236 H    117 MOH     0.0372 ****
1007 HC3    18.473592   -5.939196   19.933058 H    117 MOH     0.0372 ****
1008 O1     19.393888   -6.467469   21.673954 O    117 MOH    -0.6497 ****
1009 HO1    20.243170   -6.901437   21.565767 H    117 MOH     0.4215 ****
1010 HC1    16.220771   -0.891206   15.891942 H    118 MOH     0.0372 ****
1011 C1     17.144532   -0.703003   15.343934 C    118 MOH     0.1166 ****
1012 HC2    17.735161   -1.617888   15.381411 H    118 MOH     0.0372 ****
1013 HC3    17.667034    0.120433   15.831131 H    118 MOH     0.0372 ****
1014 O1     16.871445   -0.350685   13.989825 O    118 MOH    -0.6497 ****
1015 HO1    17.653177    0.071444   13.626372 H    118 MOH     0.4215 ****
1016 HC1    13.807447   -5.629335   26.802600 H    119 MOH     0.0372 ****
1017 C1     14.664235   -5.887348   26.178932 C    119 MOH     0.1166 ****
1018 HC2    14.850142   -5.094122   25.455561 H    119 MOH     0.0372 ****
1019 HC3    14.418283   -6.791210   25.621732 H    119 MOH     0.0372 ****
1020 O1     15.827595   -6.078000   26.980084 O    119 MOH    -0.6497 ****
1021 HO1    16.523880   -6.425828   26.418641 H    119 MOH     0.4215 ****
1022 HC1    19.862119   -5.969406   25.985892 H    120 MOH     0.0372 ****
1023 C1     19.363866   -6.745078   25.406064 C    120 MOH     0.1166 ****
1024 HC2    20.090750   -7.490539   25.083623 H    120 MOH     0.0372 ****
1025 HC3    18.901408   -6.271102   24.539858 H    120 MOH     0.0372 ****
1026 O1     18.388721   -7.375822   26.202973 O    120 MOH    -0.6497 ****
1027 HO1    18.860416   -7.744878   26.952507 H    120 MOH     0.4215 ****
1028 HC1    19.186619    5.729357   21.692339 H    121 MOH     0.0372 ****
1029 C1     19.779558    5.390919   20.843104 C    121 MOH     0.1166 ****
1030 HC2    20.146753    4.395201   21.091298 H    121 MOH     0.0372 ****
1031 HC3    20.626531    6.060854   20.691076 H    121 MOH     0.0372 ****
1032 O1     18.975309    5.339888   19.672842 O    121 MOH    -0.6497 ****
1033 HO1    19.382341    4.689548   19.095136 H    121 MOH     0.4215 ****
1034 HC1    14.943095    6.050240   27.354850 H    122 MOH     0.0372 ****
1035 C1     15.124383    5.012064   27.634157 C    122 MOH     0.1166 ****
1036 HC2    14.465049    4.374789   27.045137 H    122 MOH     0.0372 ****
1037 HC3    14.899794    4.857338   28.689868 H    122 MOH     0.0372 ****
1038 O1     16.454598    4.616472   27.393034 O    122 MOH    -0.6497 ****
1039 HO1    16.634154    4.724658   26.456118 H    122 MOH     0.4215 ****
1040 HC1    18.201082   -2.336813   23.660924 H    123 MOH     0.0372 ****
1041 C1     19.128307   -2.513585   24.204690 C    123 MOH     0.1166 ****
1042 HC2    19.062489   -3.438267   24.778153 H    123 MOH     0.0372 ****
1043 HC3    19.351742   -1.677084   24.867249 H    123 MOH     0.0372 ****
1044 O1     20.131742   -2.615647   23.274137 O    123 MOH    -0.6497 ****
1045 HO1    20.941764   -2.274759   23.660924 H    123 MOH     0.4215 ****
1046 HC1    16.104146   -2.192701   18.388029 H    124 MOH     0.0372 ****
1047 C1     16.384161   -3.101054   18.921895 C    124 MOH     0.1166 ****
1048 HC2    17.192452   -3.596667   18.384494 H    124 MOH     0.0372 ****
1049 HC3    15.553354   -3.806915   18.945229 H    124 MOH     0.0372 ****
1050 O1     16.821793   -2.839775   20.241356 O    124 MOH    -0.6497 ****
1051 HO1    16.474228   -3.544412   20.792899 H    124 MOH     0.4215 ****
1052 HC1    20.758744  -13.002708   25.565870 H    125 MOH     0.0372 ****
1053 C1     20.725835  -11.917584   25.466875 C    125 MOH     0.1166 ****
1054 HC2    21.170972  -11.448507   26.344395 H    125 MOH     0.0372 ****
1055 HC3    19.688337  -11.591802   25.391922 H    125 MOH     0.0372 ****
1056 O1     21.411727  -11.540363   24.301563 O    125 MOH    -0.6497 ****
1057 HO1    21.513341  -10.587103   24.341868 H    125 MOH     0.4215 ****
1058 HC1    16.212688   -0.658913   23.856086 H    126 MOH     0.0372 ****
1059 C1     15.582222   -0.972447   24.687643 C    126 MOH     0.1166 ****
1060 HC2    14.605922   -1.285165   24.317120 H    126 MOH     0.0372 ****
1061 HC3    15.411903   -0.145336   25.377780 H    126 MOH     0.0372 ****
1062 O1     16.184398   -2.026544   25.383437 O    126 MOH    -0.6497 ****
1063 HO1    15.533724   -2.380904   25.992963 H    126 MOH     0.4215 ****
1064 HC1     8.212923   -5.994309   27.052916 H    127 MOH     0.0372 ****
1065 C1      8.856668   -5.210065   26.656229 C    127 MOH     0.1166 ****
1066 HC2     8.890732   -4.408673   27.393741 H    127 MOH     0.0372 ****
1067 HC3     8.457719   -4.769973   25.741233 H    127 MOH     0.0372 ****
1068 O1     10.168408   -5.674651   26.425712 O    127 MOH    -0.6497 ****
1069 HO1    10.610658   -4.887548   26.100443 H    127 MOH     0.4215 ****
1070 HC1    14.705227    1.041442   21.895279 H    128 MOH     0.0372 ****
1071 C1     14.571859    0.018780   21.542432 C    128 MOH     0.1166 ****
1072 HC2    13.573043   -0.058788   21.113926 H    128 MOH     0.0372 ****
1073 HC3    14.645182   -0.698104   22.359848 H    128 MOH     0.0372 ****
1074 O1     15.492155   -0.258421   20.530563 O    128 MOH    -0.6497 ****
1075 HO1    15.608202   -1.206374   20.438639 H    128 MOH     0.4215 ****
1076 HC1    16.892229   -8.233143   20.853003 H    129 MOH     0.0372 ****
1077 C1     16.155530   -7.887357   21.577788 C    129 MOH     0.1166 ****
1078 HC2    15.884753   -8.695280   22.258732 H    129 MOH     0.0372 ****
1079 HC3    15.246781   -7.587703   21.057357 H    129 MOH     0.0372 ****
1080 O1     16.595471   -6.805907   22.371869 O    129 MOH    -0.6497 ****
1081 HO1    17.542903   -6.874493   22.507633 H    129 MOH     0.4215 ****
1082 HC1    17.840816    8.322142   21.205143 H    130 MOH     0.0372 ****
1083 C1     16.993266    7.657513   21.374848 C    130 MOH     0.1166 ****
1084 HC2    16.127818    8.301321   21.531119 H    130 MOH     0.0372 ****
1085 HC3    17.225938    7.055755   22.253075 H    130 MOH     0.0372 ****
1086 O1     16.859898    6.955735   20.159332 O    130 MOH    -0.6497 ****
1087 HO1    17.705716    6.549936   19.954271 H    130 MOH     0.4215 ****
1088 HC1    15.729446  -10.483816   26.615217 H    131 MOH     0.0372 ****
1089 C1     16.764635  -10.179671   26.458946 C    131 MOH     0.1166 ****
1090 HC2    17.353532  -11.082308   26.291362 H    131 MOH     0.0372 ****
1091 HC3    17.137603   -9.622820   27.317374 H    131 MOH     0.0372 ****
1092 O1     16.762326   -9.448090   25.282320 O    131 MOH    -0.6497 ****
1093 HO1    17.399720   -8.738963   25.391922 H    131 MOH     0.4215 ****
1094 HC1     7.207179    3.012056   27.303938 H    132 MOH     0.0372 ****
1095 C1      7.040902    4.082483   27.422732 C    132 MOH     0.1166 ****
1096 HC2     7.394240    4.403366   28.402782 H    132 MOH     0.0372 ****
1097 HC3     5.973958    4.295589   27.350607 H    132 MOH     0.0372 ****
1098 O1      7.727949    4.796918   26.412984 O    132 MOH    -0.6497 ****
1099 HO1     7.637305    4.267011   25.618196 H    132 MOH     0.4215 ****
1100 HC1    13.870378    9.328065   24.455005 H    133 MOH     0.0372 ****
1101 C1     14.741600    8.672827   24.435913 C    133 MOH     0.1166 ****
1102 HC2    14.741022    8.101279   23.508189 H    133 MOH     0.0372 ****
1103 HC3    14.713887    7.963700   25.263935 H    133 MOH     0.0372 ****
1104 O1     15.919972    9.457480   24.509452 O    133 MOH    -0.6497 ****
1105 HO1    15.890527    9.968199   25.321918 H    133 MOH     0.4215 ****
1106 HC1     9.685166    2.562983   26.980084 H    134 MOH     0.0372 ****
1107 C1      9.952479    1.558284   27.308888 C    134 MOH     0.1166 ****
1108 HC2    10.897024    1.268836   26.848562 H    134 MOH     0.0372 ****
1109 HC3     9.189799    0.844666   26.999175 H    134 MOH     0.0372 ****
1110 O1     10.119911    1.566041   28.737951 O    134 MOH    -0.6497 ****
1111 HO1     9.291413    1.753835   29.184843 H    134 MOH     0.4215 ****
1112 HC1    20.844769    1.447240   19.004626 H    135 MOH     0.0372 ****
1113 C1     19.920432    1.962450   18.742997 C    135 MOH     0.1166 ****
1114 HC2    19.207404    1.915501   19.566776 H    135 MOH     0.0372 ****
1115 HC3    19.484532    1.516234   17.849921 H    135 MOH     0.0372 ****
1116 O1     20.158300    3.311710   18.463690 O    135 MOH    -0.6497 ****
1117 HO1    20.662904    3.341921   17.647688 H    135 MOH     0.4215 ****
1118 HC1    11.104293   -8.772439   19.544149 H    136 MOH     0.0372 ****
1119 C1     11.618135   -8.463395   20.454195 C    136 MOH     0.1166 ****
1120 HC2    12.701244   -8.489523   20.338230 H    136 MOH     0.0372 ****
1121 HC3    11.315026   -9.102712   21.284339 H    136 MOH     0.0372 ****
1122 O1     11.178771   -7.205990   20.737038 O    136 MOH    -0.6497 ****
1123 HO1    10.846795   -6.843874   19.911844 H    136 MOH     0.4215 ****
1124 HC1     4.480931    0.649523   25.378487 H    137 MOH     0.0372 ****
1125 C1      5.039806    1.281900   26.067916 C    137 MOH     0.1166 ****
1126 HC2     5.084839    2.282516   25.637288 H    137 MOH     0.0372 ****
1127 HC3     6.053055    0.887532   26.148526 H    137 MOH     0.0372 ****
1128 O1      4.374698    1.294147   27.356264 O    137 MOH    -0.6497 ****
1129 HO1     4.841775    0.676059   27.921950 H    137 MOH     0.4215 ****
1130 HC1    12.955855   -5.563608   23.277673 H    138 MOH     0.0372 ****
1131 C1     12.073664   -4.980221   23.538595 C    138 MOH     0.1166 ****
1132 HC2    12.377928   -3.981645   23.849722 H    138 MOH     0.0372 ****
1133 HC3    11.538460   -5.470119   24.351768 H    138 MOH     0.0372 ****
1134 O1     11.252672   -4.925107   22.371162 O    138 MOH    -0.6497 ****
1135 HO1    11.162028   -5.813864   22.018315 H    138 MOH     0.4215 ****
1136 HC1    14.686174   -3.700771   28.344093 H    139 MOH     0.0372 ****
1137 C1     14.374405   -2.657288   28.308737 C    139 MOH     0.1166 ****
1138 HC2    15.180386   -2.000008   28.636835 H    139 MOH     0.0372 ****
1139 HC3    13.531473   -2.533997   28.987560 H    139 MOH     0.0372 ****
1140 O1     13.921185   -2.311093   27.014732 O    139 MOH    -0.6497 ****
1141 HO1    13.709875   -1.375388   27.044430 H    139 MOH     0.4215 ****
1142 HC1    10.411473   -4.529923   29.160801 H    140 MOH     0.0372 ****
1143 C1     11.182813   -4.823045   29.873565 C    140 MOH     0.1166 ****
1144 HC2    12.080592   -5.079425   29.310708 H    140 MOH     0.0372 ****
1145 HC3    10.852568   -5.711393   30.412380 H    140 MOH     0.0372 ****
1146 O1     11.443198   -3.745678   30.782197 O    140 MOH    -0.6497 ****
1147 HO1    10.776935   -3.770581   31.473040 H    140 MOH     0.4215 ****
1148 HC1    10.282146   -3.919183   35.043929 H    141 MOH     0.0372 ****
1149 C1     10.765388   -4.069827   34.078729 C    141 MOH     0.1166 ****
1150 HC2    11.220918   -5.059421   34.058930 H    141 MOH     0.0372 ****
1151 HC3    11.525759   -3.300687   33.940136 H    141 MOH     0.0372 ****
1152 O1      9.734241   -4.020429   33.092315 O    141 MOH    -0.6497 ****
1153 HO1     9.221554   -3.219446   33.222422 H    141 MOH     0.4215 ****
1154 HC1     5.982041   -2.491539   28.710374 H    142 MOH     0.0372 ****
1155 C1      6.569784   -1.575838   28.771892 C    142 MOH     0.1166 ****
1156 HC2     7.035706   -1.365182   27.808813 H    142 MOH     0.0372 ****
1157 HC3     7.358444   -1.724441   29.508697 H    142 MOH     0.0372 ****
1158 O1      5.788052   -0.451114   29.147366 O    142 MOH    -0.6497 ****
1159 HO1     5.387948   -0.615230   30.004379 H    142 MOH     0.4215 ****
1160 HC1    19.717204    0.115943   26.260249 H    143 MOH     0.0372 ****
1161 C1     20.498937    0.789144   25.908817 C    143 MOH     0.1166 ****
1162 HC2    21.058389    0.354360   25.080795 H    143 MOH     0.0372 ****
1163 HC3    21.184251    0.994085   26.730475 H    143 MOH     0.0372 ****
1164 O1     19.925050    1.988578   25.463340 O    143 MOH    -0.6497 ****
1165 HO1    20.120195    2.631977   26.149233 H    143 MOH     0.4215 ****
1166 HC1    19.906460    9.188281   18.851891 H    144 MOH     0.0372 ****
1167 C1     20.319265   10.195838   18.815122 C    144 MOH     0.1166 ****
1168 HC2    20.233817   10.666548   19.794465 H    144 MOH     0.0372 ****
1169 HC3    19.742492   10.783715   18.100944 H    144 MOH     0.0372 ****
1170 O1     21.658718   10.140316   18.383786 O    144 MOH    -0.6497 ****
1171 HO1    21.692204    9.479770   17.687993 H    144 MOH     0.4215 ****
1172 HC1    20.561175   13.303424   21.075035 H    145 MOH     0.0372 ****
1173 C1     21.349258   13.337717   20.322673 C    145 MOH     0.1166 ****
1174 HC2    20.928947   13.729227   19.395656 H    145 MOH     0.0372 ****
1175 HC3    21.747052   12.339958   20.135997 H    145 MOH     0.0372 ****
1176 O1     22.355580   14.237904   20.672691 O    145 MOH    -0.6497 ****
1177 HO1    23.182923   13.772909   20.529148 H    145 MOH     0.4215 ****
1178 HC1    23.764892   12.682886   18.356916 H    146 MOH     0.0372 ****
1179 C1     24.195018   12.112972   19.181403 C    146 MOH     0.1166 ****
1180 HC2    24.970399   11.469164   18.766331 H    146 MOH     0.0372 ****
1181 HC3    23.449658   11.464265   19.641729 H    146 MOH     0.0372 ****
1182 O1     24.764285   13.007444   20.121148 O    146 MOH    -0.6497 ****
1183 HO1    25.178822   12.468148   20.797849 H    146 MOH     0.4215 ****
1184 HC1    27.819045   15.511231   15.891942 H    147 MOH     0.0372 ****
1185 C1     28.742806   15.699433   15.343934 C    147 MOH     0.1166 ****
1186 HC2    29.333435   14.784549   15.381411 H    147 MOH     0.0372 ****
1187 HC3    29.265308   16.522870   15.831131 H    147 MOH     0.0372 ****
1188 O1     28.469719   16.051751   13.989825 O    147 MOH    -0.6497 ****
1189 HO1    29.251451   16.473880   13.626372 H    147 MOH     0.4215 ****
1190 HC1    22.702567    7.629997   19.544149 H    148 MOH     0.0372 ****
1191 C1     23.216409    7.939041   20.454195 C    148 MOH     0.1166 ****
1192 HC2    24.299518    7.912913   20.338230 H    148 MOH     0.0372 ****
1193 HC3    22.913300    7.299725   21.284339 H    148 MOH     0.0372 ****
1194 O1     22.777045    9.196446   20.737038 O    148 MOH    -0.6497 ****
1195 HO1    22.445069    9.558562   19.911844 H    148 MOH     0.4215 ****
1196 HC1     2.883518  -29.807841   16.787281 H    149 MOH     0.0372 ****
1197 C1      2.429143  -29.509819   15.842586 C    149 MOH     0.1166 ****
1198 HC2     1.348344  -29.644541   15.890669 H    149 MOH     0.0372 ****
1199 HC3     2.851764  -30.134439   15.054869 H    149 MOH     0.0372 ****
1200 O1      2.710890  -28.152394   15.583078 O    149 MOH    -0.6497 ****
1201 HO1     2.441268  -27.958068   14.682224 H    149 MOH     0.4215 ****
1202 HC1     3.924481  -26.894172   19.910572 H    150 MOH     0.0372 ****
1203 C1      3.582689  -27.563700   19.121440 C    150 MOH     0.1166 ****
1204 HC2     3.084436  -28.439801   19.537219 H    150 MOH     0.0372 ****
1205 HC3     4.455065  -27.881725   18.550805 H    150 MOH     0.0372 ****
1206 O1      2.801534  -26.833752   18.199373 O    150 MOH    -0.6497 ****
1207 HO1     2.828670  -27.320792   17.372765 H    150 MOH     0.4215 ****
1208 HC1    -0.933922  -29.271402   14.479284 H    151 MOH     0.0372 ****
1209 C1     -1.841517  -29.335089   15.078911 C    151 MOH     0.1166 ****
1210 HC2    -2.452353  -30.181796   14.766370 H    151 MOH     0.0372 ****
1211 HC3    -2.390577  -28.403058   14.946682 H    151 MOH     0.0372 ****
1212 O1     -1.469703  -29.518393   16.403322 O    151 MOH    -0.6497 ****
1213 HO1    -0.942582  -30.321009   16.401908 H    151 MOH     0.4215 ****
1214 HC1     3.732800  -26.823546   12.843039 H    152 MOH     0.0372 ****
1215 C1      2.825206  -26.443875   12.373520 C    152 MOH     0.1166 ****
1216 HC2     2.955687  -26.463879   11.290940 H    152 MOH     0.0372 ****
1217 HC3     2.682023  -25.413048   12.695254 H    152 MOH     0.0372 ****
1218 O1      1.684939  -27.237101   12.747580 O    152 MOH    -0.6497 ****
1219 HO1     0.911867  -26.732098   12.485243 H    152 MOH     0.4215 ****
1220 HC1     0.966138  -30.951752   11.776722 H    153 MOH     0.0372 ****
1221 C1      1.532518  -30.646791   12.657070 C    153 MOH     0.1166 ****
1222 HC2     1.918188  -31.540446   13.148509 H    153 MOH     0.0372 ****
1223 HC3     0.878381  -30.123008   13.353570 H    153 MOH     0.0372 ****
1224 O1      2.627175  -29.832335   12.251898 O    153 MOH    -0.6497 ****
1225 HO1     2.276146  -28.957051   12.075121 H    153 MOH     0.4215 ****
1226 HC1    13.018787  -18.149249   12.326851 H    154 MOH     0.0372 ****
1227 C1     11.982443  -18.010445   12.633736 C    154 MOH     0.1166 ****
1228 HC2    11.418949  -17.646287   11.775308 H    154 MOH     0.0372 ****
1229 HC3    11.912583  -17.260493   13.422160 H    154 MOH     0.0372 ****
1230 O1     11.457054  -19.253153   13.050929 O    154 MOH    -0.6497 ****
1231 HO1    10.694374  -19.100876   13.613079 H    154 MOH     0.4215 ****
1232 HC1     7.517216  -28.690220   16.418171 H    155 MOH     0.0372 ****
1233 C1      6.716431  -29.084180   17.043961 C    155 MOH     0.1166 ****
1234 HC2     6.150628  -29.814536   16.464840 H    155 MOH     0.0372 ****
1235 HC3     6.043818  -28.307283   17.405292 H    155 MOH     0.0372 ****
1236 O1      7.213530  -29.825150   18.088357 O    155 MOH    -0.6497 ****
1237 HO1     7.757971  -29.229108   18.607374 H    155 MOH     0.4215 ****
1238 HC1    14.068409  -19.600572   16.995877 H    156 MOH     0.0372 ****
1239 C1     14.672318  -19.049028   17.716419 C    156 MOH     0.1166 ****
1240 HC2    15.484072  -19.684263   18.069973 H    156 MOH     0.0372 ****
1241 HC3    14.023953  -18.763255   18.545148 H    156 MOH     0.0372 ****
1242 O1     15.176922  -17.925121   17.060931 O    156 MOH    -0.6497 ****
1243 HO1    15.989831  -17.663434   17.500045 H    156 MOH     0.4215 ****
1244 HC1    21.468885  -18.116998    3.415185 H    157 MOH     0.0372 ****
1245 C1     22.006398  -17.774477    2.530594 C    157 MOH     0.1166 ****
1246 HC2    21.678463  -18.348474    1.663681 H    157 MOH     0.0372 ****
1247 HC3    23.065836  -17.959006    2.708785 H    157 MOH     0.0372 ****
1248 O1     21.746013  -16.393782    2.261893 O    157 MOH    -0.6497 ****
1249 HO1    22.005244  -16.188841    1.361039 H    157 MOH     0.4215 ****
1250 HC1    12.130244  -24.922088   21.380647 H    158 MOH     0.0372 ****
1251 C1     11.110066  -25.214802   21.628841 C    158 MOH     0.1166 ****
1252 HC2    10.948986  -25.157239   22.704350 H    158 MOH     0.0372 ****
1253 HC3    10.901643  -26.237056   21.312057 H    158 MOH     0.0372 ****
1254 O1     10.223834  -24.322372   21.027800 O    158 MOH    -0.6497 ****
1255 HO1    10.675322  -23.945967   20.268368 H    158 MOH     0.4215 ****
1256 HC1    24.837724  -19.949216   12.057444 H    159 MOH     0.0372 ****
1257 C1     24.886221  -21.036789   12.006532 C    159 MOH     0.1166 ****
1258 HC2    24.508057  -21.391557   11.048402 H    159 MOH     0.0372 ****
1259 HC3    24.279426  -21.483413   12.794249 H    159 MOH     0.0372 ****
1260 O1     26.222787  -21.471166   12.080071 O    159 MOH    -0.6497 ****
1261 HO1    26.190456  -22.430549   12.101284 H    159 MOH     0.4215 ****
1262 HC1    15.927477  -20.973919    6.484028 H    160 MOH     0.0372 ****
1263 C1     15.973088  -21.428708    5.494079 C    160 MOH     0.1166 ****
1264 HC2    16.890498  -22.007604    5.385184 H    160 MOH     0.0372 ****
1265 HC3    15.962696  -20.650995    4.731110 H    160 MOH     0.0372 ****
1266 O1     14.869772  -22.265209    5.276997 O    160 MOH    -0.6497 ****
1267 HO1    15.129002  -23.152740    5.534384 H    160 MOH     0.4215 ****
1268 HC1     6.729133  -22.135385   17.584897 H    161 MOH     0.0372 ****
1269 C1      7.769518  -22.108033   17.258921 C    161 MOH     0.1166 ****
1270 HC2     8.353796  -22.747758   17.921480 H    161 MOH     0.0372 ****
1271 HC3     8.110732  -21.074348   17.312661 H    161 MOH     0.0372 ****
1272 O1      7.836491  -22.590174   15.935924 O    161 MOH    -0.6497 ****
1273 HO1     7.241820  -23.342984   15.892084 H    161 MOH     0.4215 ****
1274 HC1     9.609533  -26.817585   13.424988 H    162 MOH     0.0372 ****
1275 C1     10.524056  -26.511399   12.917286 C    162 MOH     0.1166 ****
1276 HC2    11.119304  -25.856977   13.554389 H    162 MOH     0.0372 ****
1277 HC3    10.248660  -25.965163   12.015017 H    162 MOH     0.0372 ****
1278 O1     11.226114  -27.650820   12.519184 O    162 MOH    -0.6497 ****
1279 HO1    12.160844  -27.452003   12.608987 H    162 MOH     0.4215 ****
1280 HC1     6.555350  -27.155207    8.569286 H    163 MOH     0.0372 ****
1281 C1      6.598074  -26.913524    9.631360 C    163 MOH     0.1166 ****
1282 HC2     7.634995  -26.975577    9.962286 H    163 MOH     0.0372 ****
1283 HC3     6.000517  -27.615302   10.213309 H    163 MOH     0.0372 ****
1284 O1      6.164484  -25.619785    9.900768 O    163 MOH    -0.6497 ****
1285 HO1     5.394876  -25.428316    9.359831 H    163 MOH     0.4215 ****
1286 HC1     3.952078  -23.217652   16.284528 H    164 MOH     0.0372 ****
1287 C1      3.517333  -24.103142   16.747683 C    164 MOH     0.1166 ****
1288 HC2     3.105105  -24.777977   15.997443 H    164 MOH     0.0372 ****
1289 HC3     2.695186  -23.816960   17.404585 H    164 MOH     0.0372 ****
1290 O1      4.422618  -24.805738   17.543178 O    164 MOH    -0.6497 ****
1291 HO1     3.896075  -25.523438   17.903802 H    164 MOH     0.4215 ****
1292 HC1    17.541171  -17.659351   14.053606 H    165 MOH     0.0372 ****
1293 C1     16.875486  -16.800397   14.138459 C    165 MOH     0.1166 ****
1294 HC2    15.833369  -17.120464   14.131388 H    165 MOH     0.0372 ****
1295 HC3    17.010586  -16.175777   13.255990 H    165 MOH     0.0372 ****
1296 O1     17.101230  -16.003496   15.341955 O    165 MOH    -0.6497 ****
1297 HO1    17.028484  -16.570553   16.111994 H    165 MOH     0.4215 ****
1298 HC1     9.864722  -25.045788    8.956073 H    166 MOH     0.0372 ****
1299 C1      9.324322  -24.176219    8.582721 C    166 MOH     0.1166 ****
1300 HC2     8.880917  -24.505675    7.642976 H    166 MOH     0.0372 ****
1301 HC3    10.047165  -23.373194    8.436350 H    166 MOH     0.0372 ****
1302 O1      8.333012  -23.837781    9.576206 O    166 MOH    -0.6497 ****
1303 HO1     7.697349  -24.551807    9.658937 H    166 MOH     0.4215 ****
1304 HC1    14.481792  -13.405404   16.787281 H    167 MOH     0.0372 ****
1305 C1     14.027417  -13.107383   15.842586 C    167 MOH     0.1166 ****
1306 HC2    12.946618  -13.242105   15.890669 H    167 MOH     0.0372 ****
1307 HC3    14.450038  -13.732003   15.054869 H    167 MOH     0.0372 ****
1308 O1     14.309164  -11.749957   15.583078 O    167 MOH    -0.6497 ****
1309 HO1    14.039542  -11.555631   14.682224 H    167 MOH     0.4215 ****
1310 HC1    15.522755  -10.491736   19.910572 H    168 MOH     0.0372 ****
1311 C1     15.180963  -11.161263   19.121440 C    168 MOH     0.1166 ****
1312 HC2    14.682710  -12.037364   19.537219 H    168 MOH     0.0372 ****
1313 HC3    16.053340  -11.479289   18.550805 H    168 MOH     0.0372 ****
1314 O1     14.399808  -10.431315   18.199373 O    168 MOH    -0.6497 ****
1315 HO1    14.426944  -10.918355   17.372765 H    168 MOH     0.4215 ****
1316 HC1    21.052616  -19.161297   16.870012 H    169 MOH     0.0372 ****
1317 C1     21.535280  -20.127212   16.722934 C    169 MOH     0.1166 ****
1318 HC2    20.762208  -20.881247   16.575149 H    169 MOH     0.0372 ****
1319 HC3    22.099929  -20.369712   17.622374 H    169 MOH     0.0372 ****
1320 O1     22.443452  -20.099451   15.600049 O    169 MOH    -0.6497 ****
1321 HO1    23.154748  -19.495244   15.829151 H    169 MOH     0.4215 ****
1322 HC1    19.546886  -14.359889    7.997944 H    170 MOH     0.0372 ****
1323 C1     18.966072  -13.978585    8.837987 C    170 MOH     0.1166 ****
1324 HC2    19.263407  -12.971436    9.130022 H    170 MOH     0.0372 ****
1325 HC3    19.173918  -14.633823    9.684393 H    170 MOH     0.0372 ****
1326 O1     17.586782  -14.022267    8.553022 O    170 MOH    -0.6497 ****
1327 HO1    17.181482  -14.697102    9.102444 H    170 MOH     0.4215 ****
1328 HC1     8.124588  -24.716739   19.023860 H    171 MOH     0.0372 ****
1329 C1      7.733145  -25.485879   18.359179 C    171 MOH     0.1166 ****
1330 HC2     8.232553  -25.451995   17.391150 H    171 MOH     0.0372 ****
1331 HC3     6.661583  -25.323396   18.234728 H    171 MOH     0.0372 ****
1332 O1      7.874018  -26.752674   18.943957 O    171 MOH    -0.6497 ****
1333 HO1     7.427726  -26.753082   19.793192 H    171 MOH     0.4215 ****
1334 HC1    18.479365  -23.357681   13.775006 H    172 MOH     0.0372 ****
1335 C1     17.415886  -23.156823   13.643484 C    172 MOH     0.1166 ****
1336 HC2    16.833917  -24.077831   13.670354 H    172 MOH     0.0372 ****
1337 HC3    17.250764  -22.686112   12.674041 H    172 MOH     0.0372 ****
1338 O1     16.965553  -22.266433   14.622827 O    172 MOH    -0.6497 ****
1339 HO1    17.075827  -21.371961   14.292608 H    172 MOH     0.4215 ****
1340 HC1    22.192305  -20.430132   10.978399 H    173 MOH     0.0372 ****
1341 C1     21.788160  -20.084346   10.027340 C    173 MOH     0.1166 ****
1342 HC2    20.855162  -20.607720    9.815208 H    173 MOH     0.0372 ****
1343 HC3    22.509270  -20.229274    9.223360 H    173 MOH     0.0372 ****
1344 O1     21.541631  -18.718347   10.181489 O    173 MOH    -0.6497 ****
1345 HO1    22.366087  -18.262742   10.369580 H    173 MOH     0.4215 ****
1346 HC1    17.389905  -19.758156    8.514839 H    174 MOH     0.0372 ****
1347 C1     17.152615  -20.044746    9.540144 C    174 MOH     0.1166 ****
1348 HC2    17.914717  -20.707333    9.949558 H    174 MOH     0.0372 ****
1349 HC3    16.199409  -20.573428    9.521052 H    174 MOH     0.0372 ****
1350 O1     17.051001  -18.918389   10.378065 O    174 MOH    -0.6497 ****
1351 HO1    17.824650  -18.361947   10.258564 H    174 MOH     0.4215 ****
1352 HC1    24.431847  -18.542801    9.311748 H    175 MOH     0.0372 ****
1353 C1     24.852158  -17.659351    9.792581 C    175 MOH     0.1166 ****
1354 HC2    25.105614  -16.917564    9.035269 H    175 MOH     0.0372 ****
1355 HC3    25.738968  -17.942267   10.358973 H    175 MOH     0.0372 ****
1356 O1     23.846991  -17.162921   10.615653 O    175 MOH    -0.6497 ****
1357 HO1    24.203216  -16.966554   11.484687 H    175 MOH     0.4215 ****
1358 HC1    18.783052  -16.234973   21.887642 H    176 MOH     0.0372 ****
1359 C1     18.740328  -15.360913   21.237811 C    176 MOH     0.1166 ****
1360 HC2    19.541112  -14.660768   21.476106 H    176 MOH     0.0372 ****
1361 HC3    17.800979  -14.844887   21.432972 H    176 MOH     0.0372 ****
1362 O1     18.740905  -15.715273   19.846225 O    176 MOH    -0.6497 ****
1363 HO1    18.850024  -14.922863   19.315188 H    176 MOH     0.4215 ****
1364 HC1    13.096729  -20.504434   10.501809 H    177 MOH     0.0372 ****
1365 C1     12.514182  -21.377268   10.797379 C    177 MOH     0.1166 ****
1366 HC2    12.850200  -22.292153   10.310183 H    177 MOH     0.0372 ****
1367 HC3    11.494005  -21.197231   10.460089 H    177 MOH     0.0372 ****
1368 O1     12.507254  -21.524238   12.200279 O    177 MOH    -0.6497 ****
1369 HO1    12.320770  -20.662426   12.581410 H    177 MOH     0.4215 ****
1370 HC1    12.265922  -23.518939   14.772734 H    178 MOH     0.0372 ****
1371 C1     13.297647  -23.802672   14.566966 C    178 MOH     0.1166 ****
1372 HC2    13.568424  -24.628558   15.223868 H    178 MOH     0.0372 ****
1373 HC3    13.946011  -22.951882   14.777683 H    178 MOH     0.0372 ****
1374 O1     13.435633  -24.121922   13.205078 O    178 MOH    -0.6497 ****
1375 HO1    13.138875  -23.329104   12.752530 H    178 MOH     0.4215 ****
1376 HC1    17.759987  -24.246437    9.086181 H    179 MOH     0.0372 ****
1377 C1     17.774421  -23.538943    8.256745 C    179 MOH     0.1166 ****
1378 HC2    16.783688  -23.107833    8.115323 H    179 MOH     0.0372 ****
1379 HC3    18.113325  -24.032107    7.345991 H    179 MOH     0.0372 ****
1380 O1     18.651416  -22.487296    8.563629 O    179 MOH    -0.6497 ****
1381 HO1    18.847715  -22.480355    9.503374 H    179 MOH     0.4215 ****
1382 HC1    11.556358  -19.764279   15.969865 H    180 MOH     0.0372 ****
1383 C1     11.316758  -20.397064   16.824050 C    180 MOH     0.1166 ****
1384 HC2    10.271177  -20.272549   17.104772 H    180 MOH     0.0372 ****
1385 HC3    11.948956  -20.089653   17.657729 H    180 MOH     0.0372 ****
1386 O1     11.618712  -21.747141   16.507974 O    180 MOH    -0.6497 ****
1387 HO1    11.156255  -22.020259   15.712479 H    180 MOH     0.4215 ****
1388 HC1     8.962901  -27.702667    6.870108 H    181 MOH     0.0372 ****
1389 C1      9.750984  -27.668375    6.117747 C    181 MOH     0.1166 ****
1390 HC2     9.330673  -27.276865    5.190730 H    181 MOH     0.0372 ****
1391 HC3    10.148778  -28.666133    5.931071 H    181 MOH     0.0372 ****
1392 O1     10.757306  -26.768187    6.467765 O    181 MOH    -0.6497 ****
1393 HO1    11.584649  -27.233182    6.324222 H    181 MOH     0.4215 ****
1394 HC1    22.513889  -19.607920    6.437359 H    182 MOH     0.0372 ****
1395 C1     23.257516  -20.128845    5.834904 C    182 MOH     0.1166 ****
1396 HC2    24.173194  -19.539335    5.786821 H    182 MOH     0.0372 ****
1397 HC3    22.921498  -20.250095    4.804650 H    182 MOH     0.0372 ****
1398 O1     23.595844  -21.357673    6.418974 O    182 MOH    -0.6497 ****
1399 HO1    22.892054  -21.629158    7.012237 H    182 MOH     0.4215 ****
1400 HC1    22.264474  -24.460360    8.469584 H    183 MOH     0.0372 ****
1401 C1     21.327434  -24.204388    7.976731 C    183 MOH     0.1166 ****
1402 HC2    20.489122  -24.536294    8.589792 H    183 MOH     0.0372 ****
1403 HC3    21.308959  -24.703267    7.007994 H    183 MOH     0.0372 ****
1404 O1     21.296835  -22.820834    7.759649 O    183 MOH    -0.6497 ****
1405 HO1    20.380580  -22.579560    7.607621 H    183 MOH     0.4215 ****
1406 HC1    12.317883  -25.162547   17.711470 H    184 MOH     0.0372 ****
1407 C1     11.308098  -24.763280   17.803393 C    184 MOH     0.1166 ****
1408 HC2    10.695529  -25.504659   18.316753 H    184 MOH     0.0372 ****
1409 HC3    10.906839  -24.571403   16.807787 H    184 MOH     0.0372 ****
1410 O1     11.376225  -23.574461   18.565654 O    184 MOH    -0.6497 ****
1411 HO1    11.710511  -22.881255   17.991484 H    184 MOH     0.4215 ****
1412 HC1     8.061657  -17.926346   16.135328 H    185 MOH     0.0372 ****
1413 C1      8.924218  -17.463392   15.655910 C    185 MOH     0.1166 ****
1414 HC2     9.711147  -17.348674   16.401908 H    185 MOH     0.0372 ****
1415 HC3     8.607253  -16.471349   15.333469 H    185 MOH     0.0372 ****
1416 O1      9.307002  -18.250903   14.496962 O    185 MOH    -0.6497 ****
1417 HO1     8.613027  -18.204771   13.835817 H    185 MOH     0.4215 ****
1418 HC1    14.747951  -22.488928   22.396052 H    186 MOH     0.0372 ****
1419 C1     15.355900  -21.618135   22.147857 C    186 MOH     0.1166 ****
1420 HC2    16.405523  -21.887579   22.033306 H    186 MOH     0.0372 ****
1421 HC3    15.299320  -20.895944   22.963152 H    186 MOH     0.0372 ****
1422 O1     14.960993  -21.055977   20.937998 O    186 MOH    -0.6497 ****
1423 HO1    15.242740  -21.654469   20.242205 H    186 MOH     0.4215 ****
1424 HC1    16.220771  -25.494861    1.687016 H    187 MOH     0.0372 ****
1425 C1     17.144532  -25.306658    1.139008 C    187 MOH     0.1166 ****
1426 HC2    17.735161  -26.221543    1.176485 H    187 MOH     0.0372 ****
1427 HC3    17.667034  -24.483222    1.626205 H    187 MOH     0.0372 ****
1428 O1     16.871445  -24.954340   -0.215102 O    187 MOH    -0.6497 ****
1429 HO1    17.653177  -24.532211   -0.578554 H    187 MOH     0.4215 ****
1430 HC1    20.328618  -16.239055   11.708133 H    188 MOH     0.0372 ****
1431 C1     19.313637  -16.622401   11.604188 C    188 MOH     0.1166 ****
1432 HC2    18.592526  -15.805088   11.625401 H    188 MOH     0.0372 ****
1433 HC3    19.078655  -17.317239   12.410290 H    188 MOH     0.0372 ****
1434 O1     19.186042  -17.334386   10.421906 O    188 MOH    -0.6497 ****
1435 HO1    19.906575  -17.967579   10.390086 H    188 MOH     0.4215 ****
1436 HC1    19.186620  -18.874298    7.487413 H    189 MOH     0.0372 ****
1437 C1     19.779558  -19.212736    6.638177 C    189 MOH     0.1166 ****
1438 HC2    20.146753  -20.208454    6.886372 H    189 MOH     0.0372 ****
1439 HC3    20.626531  -18.542801    6.486149 H    189 MOH     0.0372 ****
1440 O1     18.975309  -19.263767    5.467916 O    189 MOH    -0.6497 ****
1441 HO1    19.382341  -19.914107    4.890209 H    189 MOH     0.4215 ****
1442 HC1    14.943095  -18.553415   13.149924 H    190 MOH     0.0372 ****
1443 C1     15.124383  -19.591590   13.429231 C    190 MOH     0.1166 ****
1444 HC2    14.465049  -20.228866   12.840211 H    190 MOH     0.0372 ****
1445 HC3    14.899794  -19.746317   14.484941 H    190 MOH     0.0372 ****
1446 O1     16.454598  -19.987183   13.188107 O    190 MOH    -0.6497 ****
1447 HO1    16.634154  -19.878997   12.251191 H    190 MOH     0.4215 ****
1448 HC1    18.831549  -24.341559   16.808494 H    191 MOH     0.0372 ****
1449 C1     19.285346  -23.462192   17.265285 C    191 MOH     0.1166 ****
1450 HC2    20.122504  -23.145392   16.643031 H    191 MOH     0.0372 ****
1451 HC3    19.589033  -23.711224   18.282105 H    191 MOH     0.0372 ****
1452 O1     18.335028  -22.464434   17.229930 O    191 MOH    -0.6497 ****
1453 HO1    18.007093  -22.408912   16.329076 H    191 MOH     0.4215 ****
1454 HC1    10.664352  -12.868966   14.479284 H    192 MOH     0.0372 ****
1455 C1      9.756758  -12.932653   15.078911 C    192 MOH     0.1166 ****
1456 HC2     9.145921  -13.779360   14.766370 H    192 MOH     0.0372 ****
1457 HC3     9.207697  -12.000622   14.946682 H    192 MOH     0.0372 ****
1458 O1     10.128571  -13.115956   16.403322 O    192 MOH    -0.6497 ****
1459 HO1    10.655692  -13.918572   16.401908 H    192 MOH     0.4215 ****
1460 HC1    22.851062  -17.389499   14.883042 H    193 MOH     0.0372 ****
1461 C1     22.358582  -16.953082   14.014008 C    193 MOH     0.1166 ****
1462 HC2    21.416346  -16.465633   14.264324 H    193 MOH     0.0372 ****
1463 HC3    22.106280  -17.787541   13.359227 H    193 MOH     0.0372 ****
1464 O1     23.196317  -16.027991   13.313972 O    193 MOH    -0.6497 ****
1465 HO1    22.655340  -15.328254   12.942034 H    193 MOH     0.4215 ****
1466 HC1    25.506295  -18.026366   18.632123 H    194 MOH     0.0372 ****
1467 C1     25.166814  -18.772236   17.912995 C    194 MOH     0.1166 ****
1468 HC2    24.660477  -19.609553   18.394535 H    194 MOH     0.0372 ****
1469 HC3    26.053624  -19.169053   17.418020 H    194 MOH     0.0372 ****
1470 O1     24.325614  -18.151699   16.958401 O    194 MOH    -0.6497 ****
1471 HO1    24.855044  -17.466658   16.542622 H    194 MOH     0.4215 ****
1472 HC1    16.212688  -25.262567    9.651159 H    195 MOH     0.0372 ****
1473 C1     15.582222  -25.576102   10.482717 C    195 MOH     0.1166 ****
1474 HC2    14.605922  -25.888820   10.112193 H    195 MOH     0.0372 ****
1475 HC3    15.411903  -24.748991   11.172853 H    195 MOH     0.0372 ****
1476 O1     16.184398  -26.630199   11.178510 O    195 MOH    -0.6497 ****
1477 HO1    15.533724  -26.984559   11.788036 H    195 MOH     0.4215 ****
1478 HC1    18.874850  -20.530153   12.794956 H    196 MOH     0.0372 ****
1479 C1     19.531298  -20.254586   13.620150 C    196 MOH     0.1166 ****
1480 HC2    18.984547  -20.290511   14.563430 H    196 MOH     0.0372 ****
1481 HC3    19.877708  -19.231924   13.469536 H    196 MOH     0.0372 ****
1482 O1     20.650202  -21.126604   13.685204 O    196 MOH    -0.6497 ****
1483 HO1    21.255265  -20.800005   14.355541 H    196 MOH     0.4215 ****
1484 HC1    22.651298  -15.815294   20.562524 H    197 MOH     0.0372 ****
1485 C1     22.339529  -16.234156   21.519947 C    197 MOH     0.1166 ****
1486 HC2    21.812408  -15.487879   22.112502 H    197 MOH     0.0372 ****
1487 HC3    23.232113  -16.567695   22.048155 H    197 MOH     0.0372 ****
1488 O1     21.524888  -17.348266   21.292965 O    197 MOH    -0.6497 ****
1489 HO1    20.838996  -17.106991   20.667176 H    197 MOH     0.4215 ****
1490 HC1    15.331074  -10.421109   12.843039 H    198 MOH     0.0372 ****
1491 C1     14.423480  -10.041438   12.373520 C    198 MOH     0.1166 ****
1492 HC2    14.553961  -10.061442   11.290940 H    198 MOH     0.0372 ****
1493 HC3    14.280297   -9.010611   12.695254 H    198 MOH     0.0372 ****
1494 O1     13.283213  -10.834665   12.747580 O    198 MOH    -0.6497 ****
1495 HO1    12.510141  -10.329661   12.485243 H    198 MOH     0.4215 ****
1496 HC1    17.488632  -18.891036   19.354786 H    199 MOH     0.0372 ****
1497 C1     18.070601  -18.648537   18.465245 C    199 MOH     0.1166 ****
1498 HC2    18.034228  -19.470341   17.750360 H    199 MOH     0.0372 ****
1499 HC3    19.097707  -18.505242   18.802535 H    199 MOH     0.0372 ****
1500 O1     17.604680  -17.404196   17.933501 O    199 MOH    -0.6497 ****
1501 HO1    18.020372  -16.726912   18.471609 H    199 MOH     0.4215 ****
1502 HC1    14.982932  -23.457293   17.026283 H    200 MOH     0.0372 ****
1503 C1     15.145745  -23.681422   18.080579 C    200 MOH     0.1166 ****
1504 HC2    15.713280  -24.608145   18.172503 H    200 MOH     0.0372 ****
1505 HC3    14.161940  -23.798997   18.534542 H    200 MOH     0.0372 ****
1506 O1     15.838565  -22.604871   18.672428 O    200 MOH    -0.6497 ****
1507 HO1    16.676878  -22.514240   18.214222 H    200 MOH     0.4215 ****
1508 HC1    14.705227  -23.562213    7.690352 H    201 MOH     0.0372 ****
1509 C1     14.571859  -24.584875    7.337506 C    201 MOH     0.1166 ****
1510 HC2    13.573043  -24.662442    6.908999 H    201 MOH     0.0372 ****
1511 HC3    14.645182  -25.301759    8.154921 H    201 MOH     0.0372 ****
1512 O1     15.492155  -24.862076    6.325636 O    201 MOH    -0.6497 ****
1513 HO1    15.608203  -25.810028    6.233712 H    201 MOH     0.4215 ****
1514 HC1    17.840816  -16.281513    7.000216 H    202 MOH     0.0372 ****
1515 C1     16.993266  -16.946142    7.169922 C    202 MOH     0.1166 ****
1516 HC2    16.127818  -16.302334    7.326192 H    202 MOH     0.0372 ****
1517 HC3    17.225938  -17.547900    8.048148 H    202 MOH     0.0372 ****
1518 O1     16.859898  -17.647920    5.954405 O    202 MOH    -0.6497 ****
1519 HO1    17.705716  -18.053719    5.749344 H    202 MOH     0.4215 ****
1520 HC1    19.258211  -20.899210   21.581465 H    203 MOH     0.0372 ****
1521 C1     19.321719  -21.822259   21.005173 C    203 MOH     0.1166 ****
1522 HC2    20.353444  -22.026383   20.719502 H    203 MOH     0.0372 ****
1523 HC3    18.704532  -21.710399   20.114218 H    203 MOH     0.0372 ****
1524 O1     18.803836  -22.875540   21.770262 O    203 MOH    -0.6497 ****
1525 HO1    19.053829  -23.700201   21.345998 H    203 MOH     0.4215 ****
1526 HC1     7.207179  -21.591599   13.099012 H    204 MOH     0.0372 ****
1527 C1      7.040902  -20.521172   13.217806 C    204 MOH     0.1166 ****
1528 HC2     7.394240  -20.200289   14.197856 H    204 MOH     0.0372 ****
1529 HC3     5.973959  -20.308066   13.145681 H    204 MOH     0.0372 ****
1530 O1      7.727949  -19.806737   12.208057 O    204 MOH    -0.6497 ****
1531 HO1     7.637305  -20.336644   11.413269 H    204 MOH     0.4215 ****
1532 HC1    13.870378  -15.275590   10.250079 H    205 MOH     0.0372 ****
1533 C1     14.741600  -15.930828   10.230987 C    205 MOH     0.1166 ****
1534 HC2    14.741022  -16.502376    9.303263 H    205 MOH     0.0372 ****
1535 HC3    14.713887  -16.639955   11.059009 H    205 MOH     0.0372 ****
1536 O1     15.919972  -15.146175   10.304526 O    205 MOH    -0.6497 ****
1537 HO1    15.890527  -14.635456   11.116992 H    205 MOH     0.4215 ****
1538 HC1     9.685166  -22.040672   12.775157 H    206 MOH     0.0372 ****
1539 C1      9.952479  -23.045371   13.103962 C    206 MOH     0.1166 ****
1540 HC2    10.897024  -23.334819   12.643635 H    206 MOH     0.0372 ****
1541 HC3     9.189800  -23.758989   12.794249 H    206 MOH     0.0372 ****
1542 O1     10.119911  -23.037614   14.533025 O    206 MOH    -0.6497 ****
1543 HO1     9.291413  -22.849820   14.979916 H    206 MOH     0.4215 ****
1544 HC1    27.618820  -20.904109   10.205531 H    207 MOH     0.0372 ****
1545 C1     27.171951  -20.490145    9.301849 C    207 MOH     0.1166 ****
1546 HC2    26.144268  -20.171303    9.473676 H    207 MOH     0.0372 ****
1547 HC3    27.202551  -21.262551    8.532517 H    207 MOH     0.0372 ****
1548 O1     27.982551  -19.425842    8.913647 O    207 MOH    -0.6497 ****
1549 HO1    28.164416  -18.879605    9.681565 H    207 MOH     0.4215 ****
1550 HC1    20.844770  -23.156415    4.799700 H    208 MOH     0.0372 ****
1551 C1     19.920432  -22.641205    4.538070 C    208 MOH     0.1166 ****
1552 HC2    19.207404  -22.688154    5.361850 H    208 MOH     0.0372 ****
1553 HC3    19.484532  -23.087421    3.644994 H    208 MOH     0.0372 ****
1554 O1     20.158300  -21.291945    4.258763 O    208 MOH    -0.6497 ****
1555 HO1    20.662904  -21.261734    3.442762 H    208 MOH     0.4215 ****
1556 HC1    12.566721  -15.963080   14.851930 H    209 MOH     0.0372 ****
1557 C1     12.196062  -16.359897   15.796624 C    209 MOH     0.1166 ****
1558 HC2    13.050541  -16.482780   16.462012 H    209 MOH     0.0372 ****
1559 HC3    11.724367  -17.335610   15.680659 H    209 MOH     0.0372 ****
1560 O1     11.341007  -15.424600   16.358774 O    209 MOH    -0.6497 ****
1561 HO1    11.525759  -15.422967   17.300640 H    209 MOH     0.4215 ****
1562 HC1    11.854848  -20.637931   20.590101 H    210 MOH     0.0372 ****
1563 C1     11.788453  -20.898393   21.646519 C    210 MOH     0.1166 ****
1564 HC2    11.896418  -21.976577   21.770262 H    210 MOH     0.0372 ****
1565 HC3    10.804648  -20.583634   21.995122 H    210 MOH     0.0372 ****
1566 O1     12.772258  -20.179468   22.369889 O    210 MOH    -0.6497 ****
1567 HO1    13.594982  -20.288470   21.886935 H    210 MOH     0.4215 ****
1568 HC1    12.564412  -14.549316   11.776722 H    211 MOH     0.0372 ****
1569 C1     13.130793  -14.244354   12.657070 C    211 MOH     0.1166 ****
1570 HC2    13.516462  -15.138010   13.148509 H    211 MOH     0.0372 ****
1571 HC3    12.476655  -13.720572   13.353570 H    211 MOH     0.0372 ****
1572 O1     14.225449  -13.429899   12.251898 O    211 MOH    -0.6497 ****
1573 HO1    13.874420  -12.554615   12.075121 H    211 MOH     0.4215 ****
1574 HC1     4.480931  -23.954132   11.173560 H    212 MOH     0.0372 ****
1575 C1      5.039806  -23.321755   11.862989 C    212 MOH     0.1166 ****
1576 HC2     5.084839  -22.321139   11.432361 H    212 MOH     0.0372 ****
1577 HC3     6.053056  -23.716123   11.943599 H    212 MOH     0.0372 ****
1578 O1      4.374698  -23.309508   13.151338 O    212 MOH    -0.6497 ****
1579 HO1     4.841775  -23.927596   13.717023 H    212 MOH     0.4215 ****
1580 HC1     5.982041  -27.095194   14.505447 H    213 MOH     0.0372 ****
1581 C1      6.569784  -26.179493   14.566966 C    213 MOH     0.1166 ****
1582 HC2     7.035706  -25.968837   13.603886 H    213 MOH     0.0372 ****
1583 HC3     7.358445  -26.328095   15.303771 H    213 MOH     0.0372 ****
1584 O1      5.788052  -25.054769   14.942439 O    213 MOH    -0.6497 ****
1585 HO1     5.387948  -25.218885   15.799453 H    213 MOH     0.4215 ****
1586 HC1    19.799188  -16.421951   16.984564 H    214 MOH     0.0372 ****
1587 C1     20.744888  -16.079022   17.404585 C    214 MOH     0.1166 ****
1588 HC2    20.631150  -15.104533   17.880468 H    214 MOH     0.0372 ****
1589 HC3    21.474659  -15.965529   16.602726 H    214 MOH     0.0372 ****
1590 O1     21.186561  -17.001255   18.376857 O    214 MOH    -0.6497 ****
1591 HO1    22.017945  -17.389499   18.094721 H    214 MOH     0.4215 ****
1592 HC1    19.717204  -24.487712   12.055322 H    215 MOH     0.0372 ****
1593 C1     20.498937  -23.814511   11.703890 C    215 MOH     0.1166 ****
1594 HC2    21.058389  -24.249295   10.875868 H    215 MOH     0.0372 ****
1595 HC3    21.184251  -23.609570   12.525548 H    215 MOH     0.0372 ****
1596 O1     19.925051  -22.615077   11.258413 O    215 MOH    -0.6497 ****
1597 HO1    20.120195  -21.971678   11.944307 H    215 MOH     0.4215 ****
1598 HC1    24.617061   -1.746813   12.326851 H    216 MOH     0.0372 ****
1599 C1     23.580717   -1.608008   12.633736 C    216 MOH     0.1166 ****
1600 HC2    23.017223   -1.243851   11.775308 H    216 MOH     0.0372 ****
1601 HC3    23.510858   -0.858056   13.422160 H    216 MOH     0.0372 ****
1602 O1     23.055328   -2.850716   13.050929 O    216 MOH    -0.6497 ****
1603 HO1    22.292648   -2.698439   13.613079 H    216 MOH     0.4215 ****
1604 HC1    19.115490  -12.287784   16.418171 H    217 MOH     0.0372 ****
1605 C1     18.314705  -12.681743   17.043961 C    217 MOH     0.1166 ****
1606 HC2    17.748902  -13.412099   16.464840 H    217 MOH     0.0372 ****
1607 HC3    17.642092  -11.904847   17.405292 H    217 MOH     0.0372 ****
1608 O1     18.811804  -13.422714   18.088357 O    217 MOH    -0.6497 ****
1609 HO1    19.356245  -12.826671   18.607374 H    217 MOH     0.4215 ****
1610 HC1    25.666683   -3.198135   16.995877 H    218 MOH     0.0372 ****
1611 C1     26.270592   -2.646592   17.716419 C    218 MOH     0.1166 ****
1612 HC2    27.082346   -3.281826   18.069973 H    218 MOH     0.0372 ****
1613 HC3    25.622227   -2.360818   18.545148 H    218 MOH     0.0372 ****
1614 O1     26.775196   -1.522684   17.060931 O    218 MOH    -0.6497 ****
1615 HO1    27.588105   -1.260997   17.500045 H    218 MOH     0.4215 ****
1616 HC1    23.728519   -8.519652   21.380647 H    219 MOH     0.0372 ****
1617 C1     22.708341   -8.812366   21.628841 C    219 MOH     0.1166 ****
1618 HC2    22.547260   -8.754803   22.704350 H    219 MOH     0.0372 ****
1619 HC3    22.499917   -9.834620   21.312057 H    219 MOH     0.0372 ****
1620 O1     21.822108   -7.919935   21.027800 O    219 MOH    -0.6497 ****
1621 HO1    22.273596   -7.543530   20.268368 H    219 MOH     0.4215 ****
1622 HC1    27.525751   -4.571483    6.484028 H    220 MOH     0.0372 ****
1623 C1     27.571362   -5.026271    5.494079 C    220 MOH     0.1166 ****
1624 HC2    28.488772   -5.605167    5.385184 H    220 MOH     0.0372 ****
1625 HC3    27.560970   -4.248558    4.731110 H    220 MOH     0.0372 ****
1626 O1     26.468046   -5.862772    5.276997 O    220 MOH    -0.6497 ****
1627 HO1    26.727276   -6.750304    5.534384 H    220 MOH     0.4215 ****
1628 HC1    18.327407   -5.732949   17.584897 H    221 MOH     0.0372 ****
1629 C1     19.367792   -5.705596   17.258921 C    221 MOH     0.1166 ****
1630 HC2    19.952070   -6.345321   17.921480 H    221 MOH     0.0372 ****
1631 HC3    19.709006   -4.671912   17.312661 H    221 MOH     0.0372 ****
1632 O1     19.434765   -6.187738   15.935924 O    221 MOH    -0.6497 ****
1633 HO1    18.840094   -6.940547   15.892084 H    221 MOH     0.4215 ****
1634 HC1    21.207807  -10.415149   13.424988 H    222 MOH     0.0372 ****
1635 C1     22.122330  -10.108962   12.917286 C    222 MOH     0.1166 ****
1636 HC2    22.717578   -9.454540   13.554389 H    222 MOH     0.0372 ****
1637 HC3    21.846934   -9.562726   12.015017 H    222 MOH     0.0372 ****
1638 O1     22.824388  -11.248383   12.519184 O    222 MOH    -0.6497 ****
1639 HO1    23.759118  -11.049566   12.608987 H    222 MOH     0.4215 ****
1640 HC1    18.153624  -10.752770    8.569286 H    223 MOH     0.0372 ****
1641 C1     18.196348  -10.511087    9.631360 C    223 MOH     0.1166 ****
1642 HC2    19.233269  -10.573141    9.962286 H    223 MOH     0.0372 ****
1643 HC3    17.598791  -11.212866   10.213309 H    223 MOH     0.0372 ****
1644 O1     17.762758   -9.217348    9.900768 O    223 MOH    -0.6497 ****
1645 HO1    16.993150   -9.025880    9.359831 H    223 MOH     0.4215 ****
1646 HC1    15.550352   -6.815215   16.284528 H    224 MOH     0.0372 ****
1647 C1     15.115607   -7.700706   16.747683 C    224 MOH     0.1166 ****
1648 HC2    14.703379   -8.375540   15.997443 H    224 MOH     0.0372 ****
1649 HC3    14.293460   -7.414524   17.404585 H    224 MOH     0.0372 ****
1650 O1     16.020892   -8.403301   17.543178 O    224 MOH    -0.6497 ****
1651 HO1    15.494349   -9.121002   17.903802 H    224 MOH     0.4215 ****
1652 HC1    29.139445   -1.256915   14.053606 H    225 MOH     0.0372 ****
1653 C1     28.473760   -0.397960   14.138459 C    225 MOH     0.1166 ****
1654 HC2    27.431643   -0.718027   14.131388 H    225 MOH     0.0372 ****
1655 HC3    28.608860    0.226660   13.255990 H    225 MOH     0.0372 ****
1656 O1     28.699504    0.398940   15.341955 O    225 MOH    -0.6497 ****
1657 HO1    28.626758   -0.168117   16.111994 H    225 MOH     0.4215 ****
1658 HC1    21.462996   -8.643351    8.956073 H    226 MOH     0.0372 ****
1659 C1     20.922596   -7.773782    8.582721 C    226 MOH     0.1166 ****
1660 HC2    20.479191   -8.103239    7.642976 H    226 MOH     0.0372 ****
1661 HC3    21.645439   -6.970758    8.436350 H    226 MOH     0.0372 ****
1662 O1     19.931286   -7.435344    9.576206 O    226 MOH    -0.6497 ****
1663 HO1    19.295623   -8.149371    9.658937 H    226 MOH     0.4215 ****
1664 HC1    19.906460  -15.415374    4.646965 H    227 MOH     0.0372 ****
1665 C1     20.319265  -14.407817    4.610195 C    227 MOH     0.1166 ****
1666 HC2    20.233817  -13.937107    5.589538 H    227 MOH     0.0372 ****
1667 HC3    19.742492  -13.819939    3.896017 H    227 MOH     0.0372 ****
1668 O1     21.658718  -14.463339    4.178860 O    227 MOH    -0.6497 ****
1669 HO1    21.692204  -15.123884    3.483067 H    227 MOH     0.4215 ****
1670 HC1    26.080066    2.997032   16.787281 H    228 MOH     0.0372 ****
1671 C1     25.625692    3.295054   15.842586 C    228 MOH     0.1166 ****
1672 HC2    24.544892    3.160332   15.890669 H    228 MOH     0.0372 ****
1673 HC3    26.048312    2.670434   15.054869 H    228 MOH     0.0372 ****
1674 O1     25.907438    4.652479   15.583078 O    228 MOH    -0.6497 ****
1675 HO1    25.637816    4.846805   14.682224 H    228 MOH     0.4215 ****
1676 HC1    27.121029    5.910701   19.910572 H    229 MOH     0.0372 ****
1677 C1     26.779237    5.241173   19.121440 C    229 MOH     0.1166 ****
1678 HC2    26.280984    4.365073   19.537219 H    229 MOH     0.0372 ****
1679 HC3    27.651614    4.923148   18.550805 H    229 MOH     0.0372 ****
1680 O1     25.998082    5.971121   18.199373 O    229 MOH    -0.6497 ****
1681 HO1    26.025218    5.484081   17.372765 H    229 MOH     0.4215 ****
1682 HC1    27.343886  -11.001393    8.210783 H    230 MOH     0.0372 ****
1683 C1     27.182805  -12.014257    8.579185 C    230 MOH     0.1166 ****
1684 HC2    26.431673  -11.969350    9.366902 H    230 MOH     0.0372 ****
1685 HC3    28.107720  -12.414749    8.994257 H    230 MOH     0.0372 ****
1686 O1     26.731317  -12.860964    7.522768 O    230 MOH    -0.6497 ****
1687 HO1    27.136040  -13.719102    7.672675 H    230 MOH     0.4215 ****
1688 HC1    31.145160    2.042548    7.997944 H    231 MOH     0.0372 ****
1689 C1     30.564346    2.423852    8.837987 C    231 MOH     0.1166 ****
1690 HC2    30.861681    3.431000    9.130022 H    231 MOH     0.0372 ****
1691 HC3    30.772192    1.768613    9.684393 H    231 MOH     0.0372 ****
1692 O1     29.185056    2.380169    8.553022 O    231 MOH    -0.6497 ****
1693 HO1    28.779756    1.705335    9.102444 H    231 MOH     0.4215 ****
1694 HC1    19.722862   -8.314303   19.023860 H    232 MOH     0.0372 ****
1695 C1     19.331419   -9.083443   18.359179 C    232 MOH     0.1166 ****
1696 HC2    19.830827   -9.049558   17.391150 H    232 MOH     0.0372 ****
1697 HC3    18.259857   -8.920960   18.234728 H    232 MOH     0.0372 ****
1698 O1     19.472292  -10.350237   18.943957 O    232 MOH    -0.6497 ****
1699 HO1    19.026001  -10.350645   19.793192 H    232 MOH     0.4215 ****
1700 HC1    30.077639   -6.955244   13.775006 H    233 MOH     0.0372 ****
1701 C1     29.014160   -6.754386   13.643484 C    233 MOH     0.1166 ****
1702 HC2    28.432191   -7.675394   13.670354 H    233 MOH     0.0372 ****
1703 HC3    28.849038   -6.283676   12.674041 H    233 MOH     0.0372 ****
1704 O1     28.563827   -5.863997   14.622827 O    233 MOH    -0.6497 ****
1705 HO1    28.674101   -4.969525   14.292608 H    233 MOH     0.4215 ****
1706 HC1    29.558024  -15.283509   16.181998 H    234 MOH     0.0372 ****
1707 C1     29.372117  -14.697673   15.281851 C    234 MOH     0.1166 ****
1708 HC2    29.390015  -15.321477   14.388068 H    234 MOH     0.0372 ****
1709 HC3    30.119786  -13.912203   15.172956 H    234 MOH     0.0372 ****
1710 O1     28.129660  -14.109387   15.411251 O    234 MOH    -0.6497 ****
1711 HO1    27.831170  -13.998752   14.505447 H    234 MOH     0.4215 ****
1712 HC1    28.988180   -3.355719    8.514839 H    235 MOH     0.0372 ****
1713 C1     28.750889   -3.642310    9.540144 C    235 MOH     0.1166 ****
1714 HC2    29.512991   -4.304897    9.949558 H    235 MOH     0.0372 ****
1715 HC3    27.797683   -4.170991    9.521052 H    235 MOH     0.0372 ****
1716 O1     28.649275   -2.515952   10.378065 O    235 MOH    -0.6497 ****
1717 HO1    29.422924   -1.959510   10.258564 H    235 MOH     0.4215 ****
1718 HC1    26.679356  -18.338023   14.866779 H    236 MOH     0.0372 ****
1719 C1     26.272324  -17.337407   14.721822 C    236 MOH     0.1166 ****
1720 HC2    25.226743  -17.383130   14.416352 H    236 MOH     0.0372 ****
1721 HC3    26.828890  -16.879760   13.905114 H    236 MOH     0.0372 ****
1722 O1     26.427054  -16.513562   15.878649 O    236 MOH    -0.6497 ****
1723 HO1    26.709955  -15.633378   15.618434 H    236 MOH     0.4215 ****
1724 HC1    26.085262  -13.932616   17.089216 H    237 MOH     0.0372 ****
1725 C1     26.173597  -12.946696   17.545299 C    237 MOH     0.1166 ****
1726 HC2    25.572575  -12.914853   18.453225 H    237 MOH     0.0372 ****
1727 HC3    25.821413  -12.211441   16.821929 H    237 MOH     0.0372 ****
1728 O1     27.513627  -12.742980   17.852891 O    237 MOH    -0.6497 ****
1729 HO1    27.998601  -13.209608   17.169119 H    237 MOH     0.4215 ****
1730 HC1    30.381326    0.167464   21.887642 H    238 MOH     0.0372 ****
1731 C1     30.338602    1.041523   21.237811 C    238 MOH     0.1166 ****
1732 HC2    31.139387    1.741669   21.476106 H    238 MOH     0.0372 ****
1733 HC3    29.399253    1.557549   21.432972 H    238 MOH     0.0372 ****
1734 O1     30.339179    0.687164   19.846225 O    238 MOH    -0.6497 ****
1735 HO1    30.448298    1.479574   19.315188 H    238 MOH     0.4215 ****
1736 HC1    24.695003   -4.101997   10.501809 H    239 MOH     0.0372 ****
1737 C1     24.112457   -4.974832   10.797379 C    239 MOH     0.1166 ****
1738 HC2    24.448474   -5.889716   10.310183 H    239 MOH     0.0372 ****
1739 HC3    23.092279   -4.794794   10.460089 H    239 MOH     0.0372 ****
1740 O1     24.105528   -5.121801   12.200279 O    239 MOH    -0.6497 ****
1741 HO1    23.919044   -4.259989   12.581410 H    239 MOH     0.4215 ****
1742 HC1    23.864196   -7.116502   14.772734 H    240 MOH     0.0372 ****
1743 C1     24.895921   -7.400235   14.566966 C    240 MOH     0.1166 ****
1744 HC2    25.166698   -8.226121   15.223868 H    240 MOH     0.0372 ****
1745 HC3    25.544285   -6.549446   14.777683 H    240 MOH     0.0372 ****
1746 O1     25.033908   -7.719485   13.205078 O    240 MOH    -0.6497 ****
1747 HO1    24.737150   -6.926667   12.752530 H    240 MOH     0.4215 ****
1748 HC1    29.358261   -7.844001    9.086181 H    241 MOH     0.0372 ****
1749 C1     29.372695   -7.136507    8.256745 C    241 MOH     0.1166 ****
1750 HC2    28.381962   -6.705396    8.115323 H    241 MOH     0.0372 ****
1751 HC3    29.711599   -7.629671    7.345991 H    241 MOH     0.0372 ****
1752 O1     30.249690   -6.084859    8.563629 O    241 MOH    -0.6497 ****
1753 HO1    30.445989   -6.077919    9.503374 H    241 MOH     0.4215 ****
1754 HC1    23.154632   -3.361843   15.969865 H    242 MOH     0.0372 ****
1755 C1     22.915032   -3.994628   16.824050 C    242 MOH     0.1166 ****
1756 HC2    21.869451   -3.870112   17.104772 H    242 MOH     0.0372 ****
1757 HC3    23.547231   -3.687217   17.657729 H    242 MOH     0.0372 ****
1758 O1     23.216986   -5.344705   16.507974 O    242 MOH    -0.6497 ****
1759 HO1    22.754529   -5.617823   15.712479 H    242 MOH     0.4215 ****
1760 HC1    20.561175  -11.300231    6.870108 H    243 MOH     0.0372 ****
1761 C1     21.349258  -11.265938    6.117747 C    243 MOH     0.1166 ****
1762 HC2    20.928947  -10.874428    5.190730 H    243 MOH     0.0372 ****
1763 HC3    21.747053  -12.263697    5.931071 H    243 MOH     0.0372 ****
1764 O1     22.355580  -10.365751    6.467765 O    243 MOH    -0.6497 ****
1765 HO1    23.182923  -10.830745    6.324222 H    243 MOH     0.4215 ****
1766 HC1    23.764892  -11.920768    4.151990 H    244 MOH     0.0372 ****
1767 C1     24.195018  -12.490683    4.976476 C    244 MOH     0.1166 ****
1768 HC2    24.970399  -13.134491    4.561405 H    244 MOH     0.0372 ****
1769 HC3    23.449658  -13.139390    5.436803 H    244 MOH     0.0372 ****
1770 O1     24.764285  -11.596211    5.916221 O    244 MOH    -0.6497 ****
1771 HO1    25.178823  -12.135507    6.592923 H    244 MOH     0.4215 ****
1772 HC1    23.916157   -8.760110   17.711470 H    245 MOH     0.0372 ****
1773 C1     22.906372   -8.360843   17.803393 C    245 MOH     0.1166 ****
1774 HC2    22.293803   -9.102222   18.316753 H    245 MOH     0.0372 ****
1775 HC3    22.505113   -8.168967   16.807787 H    245 MOH     0.0372 ****
1776 O1     22.974499   -7.172024   18.565654 O    245 MOH    -0.6497 ****
1777 HO1    23.308785   -6.478819   17.991484 H    245 MOH     0.4215 ****
1778 HC1    19.659931   -1.523909   16.135328 H    246 MOH     0.0372 ****
1779 C1     20.522493   -1.060956   15.655910 C    246 MOH     0.1166 ****
1780 HC2    21.309421   -0.946238   16.401908 H    246 MOH     0.0372 ****
1781 HC3    20.205527   -0.068912   15.333469 H    246 MOH     0.0372 ****
1782 O1     20.905276   -1.848467   14.496962 O    246 MOH    -0.6497 ****
1783 HO1    20.211301   -1.802334   13.835817 H    246 MOH     0.4215 ****
1784 HC1    26.346225   -6.086492   22.396052 H    247 MOH     0.0372 ****
1785 C1     26.954174   -5.215698   22.147857 C    247 MOH     0.1166 ****
1786 HC2    28.003797   -5.485142   22.033306 H    247 MOH     0.0372 ****
1787 HC3    26.897594   -4.493507   22.963152 H    247 MOH     0.0372 ****
1788 O1     26.559267   -4.653540   20.937998 O    247 MOH    -0.6497 ****
1789 HO1    26.841014   -5.252032   20.242205 H    247 MOH     0.4215 ****
1790 HC1    27.819045   -9.092424    1.687016 H    248 MOH     0.0372 ****
1791 C1     28.742806   -8.904222    1.139008 C    248 MOH     0.1166 ****
1792 HC2    29.333435   -9.819106    1.176485 H    248 MOH     0.0372 ****
1793 HC3    29.265308   -8.080785    1.626205 H    248 MOH     0.0372 ****
1794 O1     28.469719   -8.551904   -0.215102 O    248 MOH    -0.6497 ****
1795 HO1    29.251451   -8.129775   -0.578554 H    248 MOH     0.4215 ****
1796 HC1    25.405721  -13.830554   12.597673 H    249 MOH     0.0372 ****
1797 C1     26.262509  -14.088567   11.974005 C    249 MOH     0.1166 ****
1798 HC2    26.448416  -13.295340   11.250635 H    249 MOH     0.0372 ****
1799 HC3    26.016558  -14.992428   11.416805 H    249 MOH     0.0372 ****
1800 O1     27.425870  -14.279219   12.775157 O    249 MOH    -0.6497 ****
1801 HO1    28.122154  -14.627046   12.213714 H    249 MOH     0.4215 ****
1802 HC1    26.541369   -2.150979   13.149924 H    250 MOH     0.0372 ****
1803 C1     26.722657   -3.189154   13.429231 C    250 MOH     0.1166 ****
1804 HC2    26.063323   -3.826429   12.840211 H    250 MOH     0.0372 ****
1805 HC3    26.498068   -3.343880   14.484941 H    250 MOH     0.0372 ****
1806 O1     28.052872   -3.584747   13.188107 O    250 MOH    -0.6497 ****
1807 HO1    28.232428   -3.476561   12.251191 H    250 MOH     0.4215 ****
1808 HC1    22.262626    3.533471   14.479284 H    251 MOH     0.0372 ****
1809 C1     21.355032    3.469784   15.078911 C    251 MOH     0.1166 ****
1810 HC2    20.744195    2.623077   14.766370 H    251 MOH     0.0372 ****
1811 HC3    20.805972    4.401815   14.946682 H    251 MOH     0.0372 ****
1812 O1     21.726845    3.286480   16.403322 O    251 MOH    -0.6497 ****
1813 HO1    22.253966    2.483864   16.401908 H    251 MOH     0.4215 ****
1814 HC1    27.702421  -10.393920    4.183103 H    252 MOH     0.0372 ****
1815 C1     27.982435  -11.302272    4.716968 C    252 MOH     0.1166 ****
1816 HC2    28.790726  -11.797886    4.179567 H    252 MOH     0.0372 ****
1817 HC3    27.151628  -12.008134    4.740303 H    252 MOH     0.0372 ****
1818 O1     28.420067  -11.040993    6.036430 O    252 MOH    -0.6497 ****
1819 HO1    28.072502  -11.745630    6.587973 H    252 MOH     0.4215 ****
1820 HC1    27.291924   -9.524351   21.105582 H    253 MOH     0.0372 ****
1821 C1     27.637180  -10.367384   20.508077 C    253 MOH     0.1166 ****
1822 HC2    28.377343  -10.899331   21.106996 H    253 MOH     0.0372 ****
1823 HC3    28.078853   -9.981589   19.589545 H    253 MOH     0.0372 ****
1824 O1     26.584670  -11.285126   20.174322 O    253 MOH    -0.6497 ****
1825 HO1    26.863530  -11.798294   19.412768 H    253 MOH     0.4215 ****
1826 HC1    27.810962   -8.860131    9.651159 H    254 MOH     0.0372 ****
1827 C1     27.180496   -9.173666   10.482717 C    254 MOH     0.1166 ****
1828 HC2    26.204197   -9.486384   10.112193 H    254 MOH     0.0372 ****
1829 HC3    27.010178   -8.346555   11.172853 H    254 MOH     0.0372 ****
1830 O1     27.782672  -10.227763   11.178510 O    254 MOH    -0.6497 ****
1831 HO1    27.131998  -10.582122   11.788036 H    254 MOH     0.4215 ****
1832 HC1    26.929348    5.981327   12.843039 H    255 MOH     0.0372 ****
1833 C1     26.021754    6.360998   12.373520 C    255 MOH     0.1166 ****
1834 HC2    26.152235    6.340994   11.290940 H    255 MOH     0.0372 ****
1835 HC3    25.878571    7.391825   12.695254 H    255 MOH     0.0372 ****
1836 O1     24.881487    5.567772   12.747580 O    255 MOH    -0.6497 ****
1837 HO1    24.108415    6.072775   12.485243 H    255 MOH     0.4215 ****
1838 HC1    19.811197  -14.195528   12.847989 H    256 MOH     0.0372 ****
1839 C1     20.454943  -13.411283   12.451302 C    256 MOH     0.1166 ****
1840 HC2    20.489006  -12.609891   13.188815 H    256 MOH     0.0372 ****
1841 HC3    20.055994  -12.971191   11.536306 H    256 MOH     0.0372 ****
1842 O1     21.766682  -13.875869   12.220785 O    256 MOH    -0.6497 ****
1843 HO1    22.208933  -13.088767   11.895516 H    256 MOH     0.4215 ****
1844 HC1    29.086906   -2.488600   19.354786 H    257 MOH     0.0372 ****
1845 C1     29.668875   -2.246100   18.465245 C    257 MOH     0.1166 ****
1846 HC2    29.632502   -3.067904   17.750360 H    257 MOH     0.0372 ****
1847 HC3    30.695982   -2.102805   18.802535 H    257 MOH     0.0372 ****
1848 O1     29.202954   -1.001760   17.933501 O    257 MOH    -0.6497 ****
1849 HO1    29.618646   -0.324476   18.471609 H    257 MOH     0.4215 ****
1850 HC1    26.581206   -7.054857   17.026283 H    258 MOH     0.0372 ****
1851 C1     26.744019   -7.278985   18.080579 C    258 MOH     0.1166 ****
1852 HC2    27.311554   -8.205709   18.172503 H    258 MOH     0.0372 ****
1853 HC3    25.760214   -7.396561   18.534542 H    258 MOH     0.0372 ****
1854 O1     27.436839   -6.202435   18.672428 O    258 MOH    -0.6497 ****
1855 HO1    28.275152   -6.111803   18.214222 H    258 MOH     0.4215 ****
1856 HC1    26.303501   -7.159777    7.690352 H    259 MOH     0.0372 ****
1857 C1     26.170133   -8.182439    7.337506 C    259 MOH     0.1166 ****
1858 HC2    25.171317   -8.260006    6.908999 H    259 MOH     0.0372 ****
1859 HC3    26.243456   -8.899323    8.154921 H    259 MOH     0.0372 ****
1860 O1     27.090429   -8.459639    6.325636 O    259 MOH    -0.6497 ****
1861 HO1    27.206477   -9.407592    6.233712 H    259 MOH     0.4215 ****
1862 HC1    28.490504  -16.434361    6.648077 H    260 MOH     0.0372 ****
1863 C1     27.753805  -16.088575    7.372861 C    260 MOH     0.1166 ****
1864 HC2    27.483027  -16.896499    8.053805 H    260 MOH     0.0372 ****
1865 HC3    26.845055  -15.788921    6.852431 H    260 MOH     0.0372 ****
1866 O1     28.193746  -15.007125    8.166942 O    260 MOH    -0.6497 ****
1867 HO1    29.141177  -15.075711    8.302707 H    260 MOH     0.4215 ****
1868 HC1    29.439090    0.120923    7.000216 H    261 MOH     0.0372 ****
1869 C1     28.591540   -0.543705    7.169922 C    261 MOH     0.1166 ****
1870 HC2    27.726092    0.100103    7.326192 H    261 MOH     0.0372 ****
1871 HC3    28.824212   -1.145463    8.048148 H    261 MOH     0.0372 ****
1872 O1     28.458172   -1.245484    5.954405 O    261 MOH    -0.6497 ****
1873 HO1    29.303990   -1.651283    5.749344 H    261 MOH     0.4215 ****
1874 HC1    27.327720  -18.685034   12.410290 H    262 MOH     0.0372 ****
1875 C1     28.362909  -18.380889   12.254019 C    262 MOH     0.1166 ****
1876 HC2    28.951806  -19.283526   12.086435 H    262 MOH     0.0372 ****
1877 HC3    28.735877  -17.824039   13.112447 H    262 MOH     0.0372 ****
1878 O1     28.360600  -17.649308   11.077394 O    262 MOH    -0.6497 ****
1879 HO1    28.997995  -16.940181   11.186995 H    262 MOH     0.4215 ****
1880 HC1    18.805453   -5.189162   13.099012 H    263 MOH     0.0372 ****
1881 C1     18.639176   -4.118735   13.217806 C    263 MOH     0.1166 ****
1882 HC2    18.992514   -3.797852   14.197856 H    263 MOH     0.0372 ****
1883 HC3    17.572233   -3.905630   13.145681 H    263 MOH     0.0372 ****
1884 O1     19.326223   -3.404301   12.208057 O    263 MOH    -0.6497 ****
1885 HO1    19.235579   -3.934207   11.413269 H    263 MOH     0.4215 ****
1886 HC1    25.468652    1.126847   10.250079 H    264 MOH     0.0372 ****
1887 C1     26.339874    0.471608   10.230987 C    264 MOH     0.1166 ****
1888 HC2    26.339297   -0.099939    9.303263 H    264 MOH     0.0372 ****
1889 HC3    26.312161   -0.237519   11.059009 H    264 MOH     0.0372 ****
1890 O1     27.518246    1.256262   10.304526 O    264 MOH    -0.6497 ****
1891 HO1    27.488801    1.766980   11.116992 H    264 MOH     0.4215 ****
1892 HC1    21.283440   -5.638235   12.775157 H    265 MOH     0.0372 ****
1893 C1     21.550753   -6.642934   13.103962 C    265 MOH     0.1166 ****
1894 HC2    22.495298   -6.932382   12.643635 H    265 MOH     0.0372 ****
1895 HC3    20.788074   -7.356552   12.794249 H    265 MOH     0.0372 ****
1896 O1     21.718185   -6.635178   14.533025 O    265 MOH    -0.6497 ****
1897 HO1    20.889687   -6.447384   14.979916 H    265 MOH     0.4215 ****
1898 HC1    24.164995    0.439357   14.851930 H    266 MOH     0.0372 ****
1899 C1     23.794336    0.042540   15.796624 C    266 MOH     0.1166 ****
1900 HC2    24.648815   -0.080343   16.462012 H    266 MOH     0.0372 ****
1901 HC3    23.322641   -0.933174   15.680659 H    266 MOH     0.0372 ****
1902 O1     22.939281    0.977836   16.358774 O    266 MOH    -0.6497 ****
1903 HO1    23.124033    0.979469   17.300640 H    266 MOH     0.4215 ****
1904 HC1    22.702567  -16.973657    5.339222 H    267 MOH     0.0372 ****
1905 C1     23.216409  -16.664614    6.249269 C    267 MOH     0.1166 ****
1906 HC2    24.299518  -16.690741    6.133303 H    267 MOH     0.0372 ****
1907 HC3    22.913300  -17.303930    7.079412 H    267 MOH     0.0372 ****
1908 O1     22.777045  -15.407209    6.532111 O    267 MOH    -0.6497 ****
1909 HO1    22.445069  -15.045093    5.706918 H    267 MOH     0.4215 ****
1910 HC1    23.453122   -4.235494   20.590101 H    268 MOH     0.0372 ****
1911 C1     23.386727   -4.495957   21.646519 C    268 MOH     0.1166 ****
1912 HC2    23.494692   -5.574140   21.770262 H    268 MOH     0.0372 ****
1913 HC3    22.402922   -4.181197   21.995122 H    268 MOH     0.0372 ****
1914 O1     24.370532   -3.777031   22.369889 O    268 MOH    -0.6497 ****
1915 HO1    25.193256   -3.886034   21.886935 H    268 MOH     0.4215 ****
1916 HC1    24.162686    1.853121   11.776722 H    269 MOH     0.0372 ****
1917 C1     24.729067    2.158082   12.657070 C    269 MOH     0.1166 ****
1918 HC2    25.114737    1.264427   13.148509 H    269 MOH     0.0372 ****
1919 HC3    24.074929    2.681865   13.353570 H    269 MOH     0.0372 ****
1920 O1     25.823723    2.972538   12.251898 O    269 MOH    -0.6497 ****
1921 HO1    25.472694    3.847822   12.075121 H    269 MOH     0.4215 ****
1922 HC1    16.079205   -7.551695   11.173560 H    270 MOH     0.0372 ****
1923 C1     16.638080   -6.919319   11.862989 C    270 MOH     0.1166 ****
1924 HC2    16.683113   -5.918702   11.432361 H    270 MOH     0.0372 ****
1925 HC3    17.651330   -7.313686   11.943599 H    270 MOH     0.0372 ****
1926 O1     15.972972   -6.907071   13.151338 O    270 MOH    -0.6497 ****
1927 HO1    16.440049   -7.525159   13.717023 H    270 MOH     0.4215 ****
1928 HC1    24.554130  -13.764826    9.072746 H    271 MOH     0.0372 ****
1929 C1     23.671938  -13.181439    9.333668 C    271 MOH     0.1166 ****
1930 HC2    23.976202  -12.182864    9.644795 H    271 MOH     0.0372 ****
1931 HC3    23.136735  -13.671337   10.146841 H    271 MOH     0.0372 ****
1932 O1     22.850946  -13.126326    8.166235 O    271 MOH    -0.6497 ****
1933 HO1    22.760302  -14.015082    7.813389 H    271 MOH     0.4215 ****
1934 HC1    26.284448  -11.901989   14.139166 H    272 MOH     0.0372 ****
1935 C1     25.972679  -10.858506   14.103811 C    272 MOH     0.1166 ****
1936 HC2    26.778660  -10.201227   14.431908 H    272 MOH     0.0372 ****
1937 HC3    25.129748  -10.735215   14.782633 H    272 MOH     0.0372 ****
1938 O1     25.519459  -10.512312   12.809805 O    272 MOH    -0.6497 ****
1939 HO1    25.308149   -9.576607   12.839504 H    272 MOH     0.4215 ****
1940 HC1    22.009747  -12.731141   14.955874 H    273 MOH     0.0372 ****
1941 C1     22.781087  -13.024263   15.668638 C    273 MOH     0.1166 ****
1942 HC2    23.678866  -13.280643   15.105781 H    273 MOH     0.0372 ****
1943 HC3    22.450842  -13.912612   16.207453 H    273 MOH     0.0372 ****
1944 O1     23.041472  -11.946896   16.577270 O    273 MOH    -0.6497 ****
1945 HO1    22.375210  -11.971799   17.268114 H    273 MOH     0.4215 ****
1946 HC1    21.880420  -12.120402   20.839003 H    274 MOH     0.0372 ****
1947 C1     22.363662  -12.271045   19.873802 C    274 MOH     0.1166 ****
1948 HC2    22.819192  -13.260639   19.854003 H    274 MOH     0.0372 ****
1949 HC3    23.124033  -11.501906   19.735209 H    274 MOH     0.0372 ****
1950 O1     21.332515  -12.221647   18.887388 O    274 MOH    -0.6497 ****
1951 HO1    20.819828  -11.420664   19.017496 H    274 MOH     0.4215 ****
1952 HC1    17.580316  -10.692757   14.505447 H    275 MOH     0.0372 ****
1953 C1     18.168058   -9.777057   14.566966 C    275 MOH     0.1166 ****
1954 HC2    18.633980   -9.566400   13.603886 H    275 MOH     0.0372 ****
1955 HC3    18.956719   -9.925659   15.303771 H    275 MOH     0.0372 ****
1956 O1     17.386326   -8.652333   14.942439 O    275 MOH    -0.6497 ****
1957 HO1    16.986222   -8.816448   15.799453 H    275 MOH     0.4215 ****
1958 HC1    30.713764    4.114653   16.418171 H    276 MOH     0.0372 ****
1959 C1     29.912979    3.720693   17.043961 C    276 MOH     0.1166 ****
1960 HC2    29.347176    2.990337   16.464840 H    276 MOH     0.0372 ****
1961 HC3    29.240366    4.497590   17.405292 H    276 MOH     0.0372 ****
1962 O1     30.410078    2.979723   18.088357 O    276 MOH    -0.6497 ****
1963 HO1    30.954519    3.575765   18.607374 H    276 MOH     0.4215 ****
1964 HC1    29.751899    5.649666    8.569286 H    277 MOH     0.0372 ****
1965 C1     29.794622    5.891349    9.631360 C    277 MOH     0.1166 ****
1966 HC2    30.831544    5.829296    9.962286 H    277 MOH     0.0372 ****
1967 HC3    29.197065    5.189571   10.213309 H    277 MOH     0.0372 ****
1968 O1     29.361032    7.185088    9.900768 O    277 MOH    -0.6497 ****
1969 HO1    28.591424    7.376557    9.359831 H    277 MOH     0.4215 ****
1970 HC1    27.148626    9.587221   16.284528 H    278 MOH     0.0372 ****
1971 C1     26.713881    8.701731   16.747683 C    278 MOH     0.1166 ****
1972 HC2    26.301653    8.026896   15.997443 H    278 MOH     0.0372 ****
1973 HC3    25.891735    8.987913   17.404585 H    278 MOH     0.0372 ****
1974 O1     27.619167    7.999135   17.543178 O    278 MOH    -0.6497 ****
1975 HO1    27.092623    7.281435   17.903802 H    278 MOH     0.4215 ****
1976 HC1    31.321136    8.088134   19.023860 H    279 MOH     0.0372 ****
1977 C1     30.929693    7.318994   18.359179 C    279 MOH     0.1166 ****
1978 HC2    31.429101    7.352878   17.391150 H    279 MOH     0.0372 ****
1979 HC3    29.858131    7.481477   18.234728 H    279 MOH     0.0372 ****
1980 O1     31.070566    6.052199   18.943957 O    279 MOH    -0.6497 ****
1981 HO1    30.624275    6.051791   19.793192 H    279 MOH     0.4215 ****
1982 HC1    30.403727   11.213274   13.099012 H    280 MOH     0.0372 ****
1983 C1     30.237450   12.283701   13.217806 C    280 MOH     0.1166 ****
1984 HC2    30.590788   12.604584   14.197856 H    280 MOH     0.0372 ****
1985 HC3    29.170507   12.496807   13.145681 H    280 MOH     0.0372 ****
1986 O1     30.924497   12.998136   12.208057 O    280 MOH    -0.6497 ****
1987 HO1    30.833853   12.468229   11.413269 H    280 MOH     0.4215 ****
1988 HC1    27.677479    8.850741   11.173560 H    281 MOH     0.0372 ****
1989 C1     28.236354    9.483118   11.862989 C    281 MOH     0.1166 ****
1990 HC2    28.281387   10.483735   11.432361 H    281 MOH     0.0372 ****
1991 HC3    29.249604    9.088750   11.943599 H    281 MOH     0.0372 ****
1992 O1     27.571247    9.495365   13.151338 O    281 MOH    -0.6497 ****
1993 HO1    28.038323    8.877278   13.717023 H    281 MOH     0.4215 ****
1994 HC1    29.178590    5.709679   14.505447 H    282 MOH     0.0372 ****
1995 C1     29.766332    6.625380   14.566966 C    282 MOH     0.1166 ****
1996 HC2    30.232254    6.836036   13.603886 H    282 MOH     0.0372 ****
1997 HC3    30.554993    6.476778   15.303771 H    282 MOH     0.0372 ****
1998 O1     28.984600    7.750104   14.942439 O    282 MOH    -0.6497 ****
1999 HO1    28.584496    7.585988   15.799453 H    282 MOH     0.4215 ****
2000 HC1    26.080066  -21.606622    2.582354 H    283 MOH     0.0372 ****
2001 C1     25.625692  -21.308601    1.637660 C    283 MOH     0.1166 ****
2002 HC2    24.544892  -21.443323    1.685743 H    283 MOH     0.0372 ****
2003 HC3    26.048312  -21.933221    0.849943 H    283 MOH     0.0372 ****
2004 O1     25.907439  -19.951176    1.378151 O    283 MOH    -0.6497 ****
2005 HO1    25.637816  -19.756849    0.477297 H    283 MOH     0.4215 ****
2006 HC1    27.121029  -18.692954    5.705645 H    284 MOH     0.0372 ****
2007 C1     26.779237  -19.362482    4.916514 C    284 MOH     0.1166 ****
2008 HC2    26.280984  -20.238582    5.332293 H    284 MOH     0.0372 ****
2009 HC3    27.651614  -19.680507    4.345879 H    284 MOH     0.0372 ****
2010 O1     25.998083  -18.632534    3.994447 O    284 MOH    -0.6497 ****
2011 HO1    26.025218  -19.119574    3.167839 H    284 MOH     0.4215 ****
2012 HC1    22.262626  -21.070184    0.274358 H    285 MOH     0.0372 ****
2013 C1     21.355032  -21.133871    0.873984 C    285 MOH     0.1166 ****
2014 HC2    20.744195  -21.980578    0.561443 H    285 MOH     0.0372 ****
2015 HC3    20.805972  -20.201840    0.741755 H    285 MOH     0.0372 ****
2016 O1     21.726845  -21.317174    2.198395 O    285 MOH    -0.6497 ****
2017 HO1    22.253966  -22.119791    2.196981 H    285 MOH     0.4215 ****
2018 HC1    26.929349  -18.622327   -1.361887 H    286 MOH     0.0372 ****
2019 C1     26.021754  -18.242657   -1.831406 C    286 MOH     0.1166 ****
2020 HC2    26.152235  -18.262661   -2.913987 H    286 MOH     0.0372 ****
2021 HC3    25.878571  -17.211830   -1.509673 H    286 MOH     0.0372 ****
2022 O1     24.881487  -19.035883   -1.457347 O    286 MOH    -0.6497 ****
2023 HO1    24.108415  -18.530880   -1.719683 H    286 MOH     0.4215 ****
2024 HC1    24.162686  -22.750534   -2.428204 H    287 MOH     0.0372 ****
2025 C1     24.729067  -22.445573   -1.547856 C    287 MOH     0.1166 ****
2026 HC2    25.114737  -23.339228   -1.056417 H    287 MOH     0.0372 ****
2027 HC3    24.074929  -21.921790   -0.851356 H    287 MOH     0.0372 ****
2028 O1     25.823723  -21.631117   -1.953029 O    287 MOH    -0.6497 ****
2029 HO1    25.472694  -20.755833   -2.129805 H    287 MOH     0.4215 ****
2030 HC1    30.713764  -20.489002    2.213245 H    288 MOH     0.0372 ****
2031 C1     29.912979  -20.882961    2.839034 C    288 MOH     0.1166 ****
2032 HC2    29.347176  -21.613318    2.259914 H    288 MOH     0.0372 ****
2033 HC3    29.240366  -20.106065    3.200366 H    288 MOH     0.0372 ****
2034 O1     30.410078  -21.623932    3.883431 O    288 MOH    -0.6497 ****
2035 HO1    30.954519  -21.027890    4.402447 H    288 MOH     0.4215 ****
2036 HC1    29.751899  -18.953988   -5.635641 H    289 MOH     0.0372 ****
2037 C1     29.794623  -18.712305   -4.573566 C    289 MOH     0.1166 ****
2038 HC2    30.831544  -18.774359   -4.242640 H    289 MOH     0.0372 ****
2039 HC3    29.197065  -19.414084   -3.991617 H    289 MOH     0.0372 ****
2040 O1     29.361033  -17.418567   -4.304159 O    289 MOH    -0.6497 ****
2041 HO1    28.591425  -17.227098   -4.845095 H    289 MOH     0.4215 ****
2042 HC1    27.148626  -15.016434    2.079601 H    290 MOH     0.0372 ****
2043 C1     26.713881  -15.901924    2.542756 C    290 MOH     0.1166 ****
2044 HC2    26.301653  -16.576759    1.792516 H    290 MOH     0.0372 ****
2045 HC3    25.891735  -15.615742    3.199659 H    290 MOH     0.0372 ****
2046 O1     27.619167  -16.604519    3.338251 O    290 MOH    -0.6497 ****
2047 HO1    27.092623  -17.322220    3.698876 H    290 MOH     0.4215 ****
2048 HC1    31.321137  -16.515521    4.818933 H    291 MOH     0.0372 ****
2049 C1     30.929693  -17.284661    4.154253 C    291 MOH     0.1166 ****
2050 HC2    31.429101  -17.250776    3.186224 H    291 MOH     0.0372 ****
2051 HC3    29.858131  -17.122178    4.029802 H    291 MOH     0.0372 ****
2052 O1     31.070567  -18.551455    4.739030 O    291 MOH    -0.6497 ****
2053 HO1    30.624275  -18.551864    5.588265 H    291 MOH     0.4215 ****
2054 HC1    30.403727  -13.390381   -1.105915 H    292 MOH     0.0372 ****
2055 C1     30.237450  -12.319954   -0.987121 C    292 MOH     0.1166 ****
2056 HC2    30.590789  -11.999070   -0.007071 H    292 MOH     0.0372 ****
2057 HC3    29.170507  -12.106848   -1.059246 H    292 MOH     0.0372 ****
2058 O1     30.924497  -11.605519   -1.996869 O    292 MOH    -0.6497 ****
2059 HO1    30.833853  -12.135425   -2.791657 H    292 MOH     0.4215 ****
2060 HC1    27.677479  -15.752914   -3.031366 H    293 MOH     0.0372 ****
2061 C1     28.236354  -15.120537   -2.341937 C    293 MOH     0.1166 ****
2062 HC2    28.281387  -14.119920   -2.772565 H    293 MOH     0.0372 ****
2063 HC3    29.249604  -15.514905   -2.261327 H    293 MOH     0.0372 ****
2064 O1     27.571247  -15.108289   -1.053589 O    293 MOH    -0.6497 ****
2065 HO1    28.038323  -15.726377   -0.487903 H    293 MOH     0.4215 ****
2066 HC1    29.178590  -18.893976    0.300521 H    294 MOH     0.0372 ****
2067 C1     29.766332  -17.978275    0.362039 C    294 MOH     0.1166 ****
2068 HC2    30.232254  -17.767619   -0.601040 H    294 MOH     0.0372 ****
2069 HC3    30.554993  -18.126877    1.098844 H    294 MOH     0.0372 ****
2070 O1     28.984600  -16.853551    0.737513 O    294 MOH    -0.6497 ****
2071 HO1    28.584496  -17.017667    1.594526 H    294 MOH     0.4215 ****
2072 HC1   -24.924211   -9.915779   17.620111 H    295 MOH     0.0372 ****
2073 C1    -24.386698   -9.573259   16.735520 C    295 MOH     0.1166 ****
2074 HC2   -24.714633  -10.147256   15.868607 H    295 MOH     0.0372 ****
2075 HC3   -23.327260   -9.757787   16.913711 H    295 MOH     0.0372 ****
2076 O1    -24.647083   -8.192563   16.466820 O    295 MOH    -0.6497 ****
2077 HO1   -24.387853   -7.987623   15.565966 H    295 MOH     0.4215 ****
2078 HC1   -21.776036    6.454406   26.531778 H    296 MOH     0.0372 ****
2079 C1    -22.812380    6.593210   26.838662 C    296 MOH     0.1166 ****
2080 HC2   -23.375873    6.957368   25.980234 H    296 MOH     0.0372 ****
2081 HC3   -22.882239    7.343162   27.627086 H    296 MOH     0.0372 ****
2082 O1    -23.337768    5.350502   27.255855 O    296 MOH    -0.6497 ****
2083 HO1   -24.100448    5.502779   27.818005 H    296 MOH     0.4215 ****
2084 HC1    -8.909785    1.901621   29.348891 H    297 MOH     0.0372 ****
2085 C1     -8.476195    2.094722   30.329648 C    297 MOH     0.1166 ****
2086 HC2    -8.190407    3.145553   30.380560 H    297 MOH     0.0372 ****
2087 HC3    -7.588230    1.475410   30.456220 H    297 MOH     0.0372 ****
2088 O1     -9.430555    1.779963   31.337275 O    297 MOH    -0.6497 ****
2089 HO1    -9.229637    0.888348   31.630018 H    297 MOH     0.4215 ****
2090 HC1   -15.547004   -8.952068   21.716381 H    298 MOH     0.0372 ****
2091 C1    -15.734065   -9.937988   22.141352 C    298 MOH     0.1166 ****
2092 HC2   -16.126086   -9.843274   23.153929 H    298 MOH     0.0372 ****
2093 HC3   -14.776818  -10.454422   22.209941 H    298 MOH     0.0372 ****
2094 O1    -16.575265  -10.741829   21.292116 O    298 MOH    -0.6497 ****
2095 HO1   -17.291179  -11.088023   21.829518 H    298 MOH     0.4215 ****
2096 HC1    -4.840043    0.290265   24.733605 H    299 MOH     0.0372 ****
2097 C1     -5.034610    1.031644   25.508594 C    299 MOH     0.1166 ****
2098 HC2    -6.098667    1.073693   25.741232 H    299 MOH     0.0372 ****
2099 HC3    -4.733233    2.020013   25.161405 H    299 MOH     0.0372 ****
2100 O1     -4.364884    0.701371   26.719868 O    299 MOH    -0.6497 ****
2101 HO1    -4.582545   -0.193101   26.992104 H    299 MOH     0.4215 ****
2102 HC1   -14.022222   -1.404374   18.739461 H    300 MOH     0.0372 ****
2103 C1    -14.814346   -1.936730   19.265548 C    300 MOH     0.1166 ****
2104 HC2   -14.787211   -1.679125   20.324087 H    300 MOH     0.0372 ****
2105 HC3   -14.648647   -3.004299   19.123420 H    300 MOH     0.0372 ****
2106 O1    -16.042948   -1.521133   18.709762 O    300 MOH    -0.6497 ****
2107 HO1   -16.737500   -1.879983   19.267670 H    300 MOH     0.4215 ****
2108 HC1   -13.325937    6.486657   17.620111 H    301 MOH     0.0372 ****
2109 C1    -12.788424    6.829178   16.735520 C    301 MOH     0.1166 ****
2110 HC2   -13.116359    6.255180   15.868607 H    301 MOH     0.0372 ****
2111 HC3   -11.728986    6.644649   16.913711 H    301 MOH     0.0372 ****
2112 O1    -13.048809    8.209873   16.466820 O    301 MOH    -0.6497 ****
2113 HO1   -12.789579    8.414814   15.565966 H    301 MOH     0.4215 ****
2114 HC1    -9.957098    4.654439   26.262370 H    302 MOH     0.0372 ****
2115 C1     -9.908601    3.566865   26.211458 C    302 MOH     0.1166 ****
2116 HC2   -10.286765    3.212098   25.253329 H    302 MOH     0.0372 ****
2117 HC3   -10.515396    3.120242   26.999175 H    302 MOH     0.0372 ****
2118 O1     -8.572035    3.132489   26.284997 O    302 MOH    -0.6497 ****
2119 HO1    -8.604367    2.173106   26.306211 H    302 MOH     0.4215 ****
2120 HC1   -18.867345    3.629736   20.688954 H    303 MOH     0.0372 ****
2121 C1    -18.821734    3.174947   19.699005 C    303 MOH     0.1166 ****
2122 HC2   -17.904325    2.596051   19.590110 H    303 MOH     0.0372 ****
2123 HC3   -18.832127    3.952660   18.936037 H    303 MOH     0.0372 ****
2124 O1    -19.925051    2.338446   19.481923 O    303 MOH    -0.6497 ****
2125 HO1   -19.665821    1.450915   19.739310 H    303 MOH     0.4215 ****
2126 HC1   -10.760193   -0.927132   19.184231 H    304 MOH     0.0372 ****
2127 C1    -10.561584    0.033476   19.658700 C    304 MOH     0.1166 ****
2128 HC2    -9.496950    0.250665   19.575261 H    304 MOH     0.0372 ****
2129 HC3   -10.790792   -0.001633   20.723603 H    304 MOH     0.0372 ****
2130 O1    -11.354863    1.029194   19.007454 O    304 MOH    -0.6497 ****
2131 HO1   -11.307521    1.805274   19.571019 H    304 MOH     0.4215 ****
2132 HC1   -11.918935   -6.394393   24.196204 H    305 MOH     0.0372 ****
2133 C1    -11.871592   -5.670977   25.010791 C    305 MOH     0.1166 ****
2134 HC2   -12.664871   -4.943478   24.839671 H    305 MOH     0.0372 ****
2135 HC3   -10.910881   -5.157400   24.964122 H    305 MOH     0.0372 ****
2136 O1    -12.056921   -6.312743   26.304796 O    305 MOH    -0.6497 ****
2137 HO1   -12.248602   -5.637092   26.960284 H    305 MOH     0.4215 ****
2138 HC1   -28.239472   -2.551552   22.774212 H    306 MOH     0.0372 ****
2139 C1    -28.196748   -2.309869   23.836286 C    306 MOH     0.1166 ****
2140 HC2   -27.159827   -2.371922   24.167212 H    306 MOH     0.0372 ****
2141 HC3   -28.794306   -3.011647   24.418235 H    306 MOH     0.0372 ****
2142 O1    -28.630338   -1.016130   24.105694 O    306 MOH    -0.6497 ****
2143 HO1   -29.399946   -0.824661   23.564757 H    306 MOH     0.4215 ****
2144 HC1    -5.161050    2.320075   28.515212 H    307 MOH     0.0372 ****
2145 C1     -5.078489    3.259863   29.061099 C    307 MOH     0.1166 ****
2146 HC2    -5.905254    3.915510   28.788155 H    307 MOH     0.0372 ****
2147 HC3    -4.121242    3.722000   28.816440 H    307 MOH     0.0372 ****
2148 O1     -5.119481    2.901829   30.402480 O    307 MOH    -0.6497 ****
2149 HO1    -4.895469    3.644841   30.966751 H    307 MOH     0.4215 ****
2150 HC1   -17.253651    6.944304   28.258532 H    308 MOH     0.0372 ****
2151 C1    -17.919336    7.803258   28.343385 C    308 MOH     0.1166 ****
2152 HC2   -18.961453    7.483191   28.336314 H    308 MOH     0.0372 ****
2153 HC3   -17.784236    8.427878   27.460916 H    308 MOH     0.0372 ****
2154 O1    -17.693592    8.600159   29.546881 O    308 MOH    -0.6497 ****
2155 HO1   -17.766338    8.033102   30.316920 H    308 MOH     0.4215 ****
2156 HC1   -24.930100   -0.442133   23.161000 H    309 MOH     0.0372 ****
2157 C1    -25.470500    0.427436   22.787647 C    309 MOH     0.1166 ****
2158 HC2   -25.913905    0.097980   21.847902 H    309 MOH     0.0372 ****
2159 HC3   -24.747658    1.230460   22.641276 H    309 MOH     0.0372 ****
2160 O1    -26.461811    0.765874   23.781132 O    309 MOH    -0.6497 ****
2161 HO1   -27.097473    0.051848   23.863864 H    309 MOH     0.4215 ****
2162 HC1   -26.486637   -7.214155   18.851891 H    310 MOH     0.0372 ****
2163 C1    -26.073831   -6.206599   18.815121 C    310 MOH     0.1166 ****
2164 HC2   -26.159279   -5.735888   19.794464 H    310 MOH     0.0372 ****
2165 HC3   -26.650604   -5.618721   18.100943 H    310 MOH     0.0372 ****
2166 O1    -24.734379   -6.262120   18.383786 O    310 MOH    -0.6497 ****
2167 HO1   -24.700892   -6.922666   17.687993 H    310 MOH     0.4215 ****
2168 HC1   -10.373368   -9.057396   24.800780 H    311 MOH     0.0372 ****
2169 C1    -11.053487   -9.626086   25.435055 C    311 MOH     0.1166 ****
2170 HC2   -10.698994   -9.588936   26.465310 H    311 MOH     0.0372 ****
2171 HC3   -11.108335  -10.662629   25.103422 H    311 MOH     0.0372 ****
2172 O1    -12.286129   -9.003099   25.353031 O    311 MOH    -0.6497 ****
2173 HO1   -12.183938   -8.110260   25.688906 H    311 MOH     0.4215 ****
2174 HC1   -13.742207    5.442358   31.074939 H    312 MOH     0.0372 ****
2175 C1    -13.259542    4.476443   30.927861 C    312 MOH     0.1166 ****
2176 HC2   -14.032614    3.722408   30.780075 H    312 MOH     0.0372 ****
2177 HC3   -12.694893    4.233943   31.827300 H    312 MOH     0.0372 ****
2178 O1    -12.351370    4.504204   29.804975 O    312 MOH    -0.6497 ****
2179 HO1   -11.640075    5.108411   30.034078 H    312 MOH     0.4215 ****
2180 HC1   -19.049210   -2.800175   22.415709 H    313 MOH     0.0372 ****
2181 C1    -19.210291   -3.813039   22.784112 C    313 MOH     0.1166 ****
2182 HC2   -19.961424   -3.768132   23.571829 H    313 MOH     0.0372 ****
2183 HC3   -18.285376   -4.213530   23.199183 H    313 MOH     0.0372 ****
2184 O1    -19.661779   -4.659746   21.727694 O    313 MOH    -0.6497 ****
2185 HO1   -19.257057   -5.517884   21.877601 H    313 MOH     0.4215 ****
2186 HC1   -15.247936   10.243766   22.202870 H    314 MOH     0.0372 ****
2187 C1    -15.828751   10.625070   23.042913 C    314 MOH     0.1166 ****
2188 HC2   -15.531415   11.632219   23.334948 H    314 MOH     0.0372 ****
2189 HC3   -15.620905    9.969832   23.889320 H    314 MOH     0.0372 ****
2190 O1    -17.208040   10.581388   22.757949 O    314 MOH    -0.6497 ****
2191 HO1   -17.613340    9.906553   23.307371 H    314 MOH     0.4215 ****
2192 HC1   -10.450156   -2.545020   28.848260 H    315 MOH     0.0372 ****
2193 C1    -10.466899   -3.552168   28.430359 C    315 MOH     0.1166 ****
2194 HC2    -9.965181   -4.210673   29.138173 H    315 MOH     0.0372 ****
2195 HC3    -9.915529   -3.580746   27.489907 H    315 MOH     0.0372 ****
2196 O1    -11.809815   -3.987769   28.281160 O    315 MOH    -0.6497 ****
2197 HO1   -12.301718   -3.726898   29.063927 H    315 MOH     0.4215 ****
2198 HC1   -16.315457    1.245974   27.979932 H    316 MOH     0.0372 ****
2199 C1    -17.378936    1.446832   27.848410 C    316 MOH     0.1166 ****
2200 HC2   -17.960905    0.525824   27.875281 H    316 MOH     0.0372 ****
2201 HC3   -17.544058    1.917542   26.878967 H    316 MOH     0.0372 ****
2202 O1    -17.829269    2.337222   28.827753 O    316 MOH    -0.6497 ****
2203 HO1   -17.718996    3.231694   28.497534 H    316 MOH     0.4215 ****
2204 HC1   -12.602517    4.173522   25.183325 H    317 MOH     0.0372 ****
2205 C1    -13.006663    4.519309   24.232266 C    317 MOH     0.1166 ****
2206 HC2   -13.939661    3.995934   24.020134 H    317 MOH     0.0372 ****
2207 HC3   -12.285552    4.374381   23.428286 H    317 MOH     0.0372 ****
2208 O1    -13.253191    5.885308   24.386416 O    317 MOH    -0.6497 ****
2209 HO1   -12.428735    6.340913   24.574506 H    317 MOH     0.4215 ****
2210 HC1   -17.404917    4.845499   22.719765 H    318 MOH     0.0372 ****
2211 C1    -17.642208    4.558909   23.745070 C    318 MOH     0.1166 ****
2212 HC2   -16.880106    3.896322   24.154485 H    318 MOH     0.0372 ****
2213 HC3   -18.595413    4.030227   23.725978 H    318 MOH     0.0372 ****
2214 O1    -17.743822    5.685266   24.582991 O    318 MOH    -0.6497 ****
2215 HO1   -16.970172    6.241708   24.463490 H    318 MOH     0.4215 ****
2216 HC1   -10.362976    6.060854   23.516674 H    319 MOH     0.0372 ****
2217 C1     -9.942665    6.944304   23.997507 C    319 MOH     0.1166 ****
2218 HC2    -9.689208    7.686091   23.240196 H    319 MOH     0.0372 ****
2219 HC3    -9.055855    6.661388   24.563899 H    319 MOH     0.0372 ****
2220 O1    -10.947832    7.440734   24.820579 O    319 MOH    -0.6497 ****
2221 HO1   -10.591606    7.637101   25.689613 H    319 MOH     0.4215 ****
2222 HC1   -21.698094    4.099221   24.706735 H    320 MOH     0.0372 ****
2223 C1    -22.280640    3.226386   25.002306 C    320 MOH     0.1166 ****
2224 HC2   -21.944622    2.311502   24.515109 H    320 MOH     0.0372 ****
2225 HC3   -23.300818    3.406424   24.665016 H    320 MOH     0.0372 ****
2226 O1    -22.287568    3.079417   26.405205 O    320 MOH    -0.6497 ****
2227 HO1   -22.474052    3.941229   26.786336 H    320 MOH     0.4215 ****
2228 HC1   -17.034835    0.357217   23.291107 H    321 MOH     0.0372 ****
2229 C1    -17.020402    1.064712   22.461671 C    321 MOH     0.1166 ****
2230 HC2   -18.011135    1.495822   22.320250 H    321 MOH     0.0372 ****
2231 HC3   -16.681497    0.571548   21.550917 H    321 MOH     0.0372 ****
2232 O1    -16.143407    2.116359   22.768555 O    321 MOH    -0.6497 ****
2233 HO1   -15.947107    2.123300   23.708300 H    321 MOH     0.4215 ****
2234 HC1   -25.831921   -3.099013   21.075035 H    322 MOH     0.0372 ****
2235 C1    -25.043838   -3.064720   20.322673 C    322 MOH     0.1166 ****
2236 HC2   -25.464149   -2.673210   19.395656 H    322 MOH     0.0372 ****
2237 HC3   -24.646044   -4.062479   20.135997 H    322 MOH     0.0372 ****
2238 O1    -24.037517   -2.164532   20.672691 O    322 MOH    -0.6497 ****
2239 HO1   -23.210174   -2.629527   20.529148 H    322 MOH     0.4215 ****
2240 HC1   -22.628205   -3.719550   18.356916 H    323 MOH     0.0372 ****
2241 C1    -22.198079   -4.289465   19.181403 C    323 MOH     0.1166 ****
2242 HC2   -21.422697   -4.933272   18.766331 H    323 MOH     0.0372 ****
2243 HC3   -22.943438   -4.938171   19.641729 H    323 MOH     0.0372 ****
2244 O1    -21.628811   -3.394993   20.121148 O    323 MOH    -0.6497 ****
2245 HO1   -21.214274   -3.934289   20.797849 H    323 MOH     0.4215 ****
2246 HC1   -12.280933    4.995734   20.642285 H    324 MOH     0.0372 ****
2247 C1    -11.537306    4.474810   20.039830 C    324 MOH     0.1166 ****
2248 HC2   -10.621629    5.064320   19.991747 H    324 MOH     0.0372 ****
2249 HC3   -11.873324    4.353560   19.009576 H    324 MOH     0.0372 ****
2250 O1    -11.198979    3.245982   20.623901 O    324 MOH    -0.6497 ****
2251 HO1   -11.902769    2.974497   21.217163 H    324 MOH     0.4215 ****
2252 HC1   -11.565019   -0.681366   25.302119 H    325 MOH     0.0372 ****
2253 C1    -11.604279   -1.750977   25.097058 C    325 MOH     0.1166 ****
2254 HC2   -12.382547   -2.179229   25.728504 H    325 MOH     0.0372 ****
2255 HC3   -10.635485   -2.187394   25.341010 H    325 MOH     0.0372 ****
2256 O1    -11.892954   -2.042874   23.728806 O    325 MOH    -0.6497 ****
2257 HO1   -11.463405   -2.857330   23.456570 H    325 MOH     0.4215 ****
2258 HC1    -7.403478   -2.001233   23.055641 H    326 MOH     0.0372 ****
2259 C1     -7.925980   -1.072060   23.283329 C    326 MOH     0.1166 ****
2260 HC2    -8.958282   -1.285165   23.561929 H    326 MOH     0.0372 ****
2261 HC3    -7.885566   -0.425803   22.407224 H    326 MOH     0.0372 ****
2262 O1     -7.238356   -0.508677   24.349646 O    326 MOH    -0.6497 ****
2263 HO1    -6.775898   -1.223928   24.792295 H    326 MOH     0.4215 ****
2264 HC1   -12.530349    0.143295   22.674510 H    327 MOH     0.0372 ****
2265 C1    -13.467388    0.399267   22.181657 C    327 MOH     0.1166 ****
2266 HC2   -14.305701    0.067361   22.794718 H    327 MOH     0.0372 ****
2267 HC3   -13.485863   -0.099612   21.212920 H    327 MOH     0.0372 ****
2268 O1    -13.497988    1.782820   21.964575 O    327 MOH    -0.6497 ****
2269 HO1   -14.414242    2.024095   21.812547 H    327 MOH     0.4215 ****
2270 HC1   -15.859928   -4.566665   20.966847 H    328 MOH     0.0372 ****
2271 C1    -15.554509   -5.546869   20.599859 C    328 MOH     0.1166 ****
2272 HC2   -14.605345   -5.467261   20.070236 H    328 MOH     0.0372 ****
2273 HC3   -16.321230   -5.939196   19.933057 H    328 MOH     0.0372 ****
2274 O1    -15.400934   -6.467469   21.673954 O    328 MOH    -0.6497 ****
2275 HO1   -14.551652   -6.901437   21.565767 H    328 MOH     0.4215 ****
2276 HC1   -10.018875   -7.214972   27.639814 H    329 MOH     0.0372 ****
2277 C1     -9.147653   -6.711602   27.220500 C    329 MOH     0.1166 ****
2278 HC2    -9.445566   -5.762424   26.777144 H    329 MOH     0.0372 ****
2279 HC3    -8.708867   -7.323158   26.431369 H    329 MOH     0.0372 ****
2280 O1     -8.178860   -6.436442   28.206207 O    329 MOH    -0.6497 ****
2281 HO1    -7.748734   -7.274576   28.389347 H    329 MOH     0.4215 ****
2282 HC1   -18.574051   -0.891206   15.891942 H    330 MOH     0.0372 ****
2283 C1    -17.650291   -0.703003   15.343934 C    330 MOH     0.1166 ****
2284 HC2   -17.059661   -1.617888   15.381411 H    330 MOH     0.0372 ****
2285 HC3   -17.127789    0.120433   15.831131 H    330 MOH     0.0372 ****
2286 O1    -17.923377   -0.350685   13.989825 O    330 MOH    -0.6497 ****
2287 HO1   -17.141645    0.071444   13.626372 H    330 MOH     0.4215 ****
2288 HC1   -14.466204    8.364599   25.913059 H    331 MOH     0.0372 ****
2289 C1    -15.481186    7.981254   25.809114 C    331 MOH     0.1166 ****
2290 HC2   -16.202296    8.798567   25.830328 H    331 MOH     0.0372 ****
2291 HC3   -15.716167    7.286416   26.615216 H    331 MOH     0.0372 ****
2292 O1    -15.608780    7.269269   24.626832 O    331 MOH    -0.6497 ****
2293 HO1   -14.888247    6.636076   24.595012 H    331 MOH     0.4215 ****
2294 HC1   -14.932703   -5.969406   25.985891 H    332 MOH     0.0372 ****
2295 C1    -15.430956   -6.745078   25.406064 C    332 MOH     0.1166 ****
2296 HC2   -14.704072   -7.490539   25.083623 H    332 MOH     0.0372 ****
2297 HC3   -15.893414   -6.271102   24.539858 H    332 MOH     0.0372 ****
2298 O1    -16.406101   -7.375822   26.202973 O    332 MOH    -0.6497 ****
2299 HO1   -15.934406   -7.744878   26.952506 H    332 MOH     0.4215 ****
2300 HC1   -15.608203    5.729357   21.692339 H    333 MOH     0.0372 ****
2301 C1    -15.015264    5.390919   20.843104 C    333 MOH     0.1166 ****
2302 HC2   -14.648069    4.395201   21.091298 H    333 MOH     0.0372 ****
2303 HC3   -14.168291    6.060854   20.691076 H    333 MOH     0.0372 ****
2304 O1    -15.819513    5.339888   19.672842 O    333 MOH    -0.6497 ****
2305 HO1   -15.412481    4.689548   19.095136 H    333 MOH     0.4215 ****
2306 HC1   -19.851727    6.050240   27.354850 H    334 MOH     0.0372 ****
2307 C1    -19.670439    5.012064   27.634157 C    334 MOH     0.1166 ****
2308 HC2   -20.329773    4.374789   27.045137 H    334 MOH     0.0372 ****
2309 HC3   -19.895029    4.857338   28.689867 H    334 MOH     0.0372 ****
2310 O1    -18.340224    4.616472   27.393034 O    334 MOH    -0.6497 ****
2311 HO1   -18.160668    4.724658   26.456117 H    334 MOH     0.4215 ****
2312 HC1   -16.593740   -2.336813   23.660924 H    335 MOH     0.0372 ****
2313 C1    -15.666515   -2.513585   24.204689 C    335 MOH     0.1166 ****
2314 HC2   -15.732333   -3.438267   24.778153 H    335 MOH     0.0372 ****
2315 HC3   -15.443081   -1.677084   24.867248 H    335 MOH     0.0372 ****
2316 O1    -14.663080   -2.615647   23.274137 O    335 MOH    -0.6497 ****
2317 HO1   -13.853058   -2.274759   23.660924 H    335 MOH     0.4215 ****
2318 HC1   -18.690676   -2.192701   18.388029 H    336 MOH     0.0372 ****
2319 C1    -18.410661   -3.101054   18.921894 C    336 MOH     0.1166 ****
2320 HC2   -17.602371   -3.596667   18.384493 H    336 MOH     0.0372 ****
2321 HC3   -19.241468   -3.806915   18.945229 H    336 MOH     0.0372 ****
2322 O1    -17.973030   -2.839775   20.241356 O    336 MOH    -0.6497 ****
2323 HO1   -18.320594   -3.544412   20.792899 H    336 MOH     0.4215 ****
2324 HC1    -7.506824   -2.720566   31.791238 H    337 MOH     0.0372 ****
2325 C1     -8.338208   -2.037159   31.621532 C    337 MOH     0.1166 ****
2326 HC2    -9.260237   -2.497255   31.978621 H    337 MOH     0.0372 ****
2327 HC3    -8.408645   -1.848956   30.550266 H    337 MOH     0.0372 ****
2328 O1     -8.010273   -0.816496   32.273485 O    337 MOH    -0.6497 ****
2329 HO1    -7.397127   -1.013680   32.985541 H    337 MOH     0.4215 ****
2330 HC1    -7.747002    0.105736   27.813762 H    338 MOH     0.0372 ****
2331 C1     -8.756787   -0.215147   27.557790 C    338 MOH     0.1166 ****
2332 HC2    -9.454226    0.215555   28.276917 H    338 MOH     0.0372 ****
2333 HC3    -8.838194   -1.301495   27.592438 H    338 MOH     0.0372 ****
2334 O1     -9.111858    0.244133   26.285705 O    338 MOH    -0.6497 ****
2335 HO1    -8.513145   -0.163299   25.656380 H    338 MOH     0.4215 ****
2336 HC1   -11.943761    7.214156   29.087969 H    339 MOH     0.0372 ****
2337 C1    -12.436241    7.650573   28.218934 C    339 MOH     0.1166 ****
2338 HC2   -13.378476    8.138022   28.469250 H    339 MOH     0.0372 ****
2339 HC3   -12.688543    6.816114   27.564154 H    339 MOH     0.0372 ****
2340 O1    -11.598505    8.575664   27.518899 O    339 MOH    -0.6497 ****
2341 HO1   -12.139482    9.275401   27.146961 H    339 MOH     0.4215 ****
2342 HC1    -5.602723   -4.185770   26.748860 H    340 MOH     0.0372 ****
2343 C1     -6.508585   -3.861212   26.237621 C    340 MOH     0.1166 ****
2344 HC2    -7.394241   -4.253947   26.736839 H    340 MOH     0.0372 ****
2345 HC3    -6.501080   -4.209448   25.204538 H    340 MOH     0.0372 ****
2346 O1     -6.601539   -2.469085   26.251763 O    340 MOH    -0.6497 ****
2347 HO1    -6.331339   -2.183720   27.127869 H    340 MOH     0.4215 ****
2348 HC1   -13.068439    0.378038   28.733708 H    341 MOH     0.0372 ****
2349 C1    -12.405064   -0.443766   29.003116 C    341 MOH     0.1166 ****
2350 HC2   -11.388927   -0.057563   29.080898 H    341 MOH     0.0372 ****
2351 HC3   -12.418920   -1.226378   28.244390 H    341 MOH     0.0372 ****
2352 O1    -12.783228   -0.870793   30.290050 O    341 MOH    -0.6497 ****
2353 HO1   -12.729534   -0.101654   30.861393 H    341 MOH     0.4215 ****
2354 HC1    -9.288527    6.577288   32.837049 H    342 MOH     0.0372 ****
2355 C1     -9.628009    5.831419   32.117921 C    342 MOH     0.1166 ****
2356 HC2   -10.134345    4.994102   32.599461 H    342 MOH     0.0372 ****
2357 HC3    -8.741199    5.434601   31.622947 H    342 MOH     0.0372 ****
2358 O1    -10.469208    6.451956   31.163327 O    342 MOH    -0.6497 ****
2359 HO1    -9.939778    7.136997   30.747548 H    342 MOH     0.4215 ****
2360 HC1   -18.582134   -0.658913   23.856086 H    343 MOH     0.0372 ****
2361 C1    -19.212601   -0.972447   24.687643 C    343 MOH     0.1166 ****
2362 HC2   -20.188900   -1.285165   24.317119 H    343 MOH     0.0372 ****
2363 HC3   -19.382919   -0.145336   25.377779 H    343 MOH     0.0372 ****
2364 O1    -18.610424   -2.026544   25.383436 O    343 MOH    -0.6497 ****
2365 HO1   -19.261098   -2.380904   25.992962 H    343 MOH     0.4215 ****
2366 HC1   -15.919972    4.073502   26.999882 H    344 MOH     0.0372 ****
2367 C1    -15.263525    4.349069   27.825076 C    344 MOH     0.1166 ****
2368 HC2   -15.810276    4.313143   28.768356 H    344 MOH     0.0372 ****
2369 HC3   -14.917115    5.371731   27.674462 H    344 MOH     0.0372 ****
2370 O1    -14.144620    3.477051   27.890130 O    344 MOH    -0.6497 ****
2371 HO1   -13.539557    3.803650   28.560467 H    344 MOH     0.4215 ****
2372 HC1   -20.089596    1.041442   21.895278 H    345 MOH     0.0372 ****
2373 C1    -20.222964    0.018780   21.542432 C    345 MOH     0.1166 ****
2374 HC2   -21.221780   -0.058788   21.113925 H    345 MOH     0.0372 ****
2375 HC3   -20.149640   -0.698104   22.359848 H    345 MOH     0.0372 ****
2376 O1    -19.302667   -0.258421   20.530562 O    345 MOH    -0.6497 ****
2377 HO1   -19.186620   -1.206374   20.438638 H    345 MOH     0.4215 ****
2378 HC1   -17.902593   -8.233143   20.853003 H    346 MOH     0.0372 ****
2379 C1    -18.639292   -7.887357   21.577788 C    346 MOH     0.1166 ****
2380 HC2   -18.910069   -8.695280   22.258731 H    346 MOH     0.0372 ****
2381 HC3   -19.548041   -7.587703   21.057357 H    346 MOH     0.0372 ****
2382 O1    -18.199351   -6.805907   22.371868 O    346 MOH    -0.6497 ****
2383 HO1   -17.251919   -6.874493   22.507633 H    346 MOH     0.4215 ****
2384 HC1   -16.954006    8.322142   21.205142 H    347 MOH     0.0372 ****
2385 C1    -17.801557    7.657513   21.374848 C    347 MOH     0.1166 ****
2386 HC2   -18.667005    8.301321   21.531118 H    347 MOH     0.0372 ****
2387 HC3   -17.568884    7.055755   22.253074 H    347 MOH     0.0372 ****
2388 O1    -17.934924    6.955735   20.159331 O    347 MOH    -0.6497 ****
2389 HO1   -17.089106    6.549936   19.954270 H    347 MOH     0.4215 ****
2390 HC1    -6.002827   -5.291714   31.185955 H    348 MOH     0.0372 ****
2391 C1     -5.618889   -4.694855   30.358640 C    348 MOH     0.1166 ****
2392 HC2    -4.931264   -5.312127   29.780226 H    348 MOH     0.0372 ****
2393 HC3    -5.117749   -3.833043   30.800581 H    348 MOH     0.0372 ****
2394 O1     -6.684100   -4.255172   29.571630 O    348 MOH    -0.6497 ****
2395 HO1    -7.213530   -5.011248   29.310000 H    348 MOH     0.4215 ****
2396 HC1   -20.924444    9.328065   24.455005 H    349 MOH     0.0372 ****
2397 C1    -20.053223    8.672827   24.435913 C    349 MOH     0.1166 ****
2398 HC2   -20.053800    8.101279   23.508189 H    349 MOH     0.0372 ****
2399 HC3   -20.080935    7.963700   25.263935 H    349 MOH     0.0372 ****
2400 O1    -18.874851    9.457480   24.509452 O    349 MOH    -0.6497 ****
2401 HO1   -18.904296    9.968199   25.321918 H    349 MOH     0.4215 ****
2402 HC1    -6.110791    0.164933   29.921648 H    350 MOH     0.0372 ****
2403 C1     -5.470510   -0.710352   30.030542 C    350 MOH     0.1166 ****
2404 HC2    -5.620621   -1.111252   31.033220 H    350 MOH     0.0372 ****
2405 HC3    -4.431856   -0.397634   29.924476 H    350 MOH     0.0372 ****
2406 O1     -5.849829   -1.652181   29.027158 O    350 MOH    -0.6497 ****
2407 HO1    -5.920843   -2.525424   29.419602 H    350 MOH     0.4215 ****
2408 HC1    -7.975055    2.378455   34.342479 H    351 MOH     0.0372 ****
2409 C1     -7.116535    2.740163   33.776794 C    351 MOH     0.1166 ****
2410 HC2    -7.464677    3.259455   32.884425 H    351 MOH     0.0372 ****
2411 HC3    -6.487223    1.899580   33.483344 H    351 MOH     0.0372 ****
2412 O1     -6.367135    3.629736   34.572289 O    351 MOH    -0.6497 ****
2413 HO1    -6.199703    3.211281   35.420110 H    351 MOH     0.4215 ****
2414 HC1    -7.176002    3.699546   24.410457 H    352 MOH     0.0372 ****
2415 C1     -7.622871    4.113510   23.506775 C    352 MOH     0.1166 ****
2416 HC2    -8.650555    4.432352   23.678602 H    352 MOH     0.0372 ****
2417 HC3    -7.592272    3.341104   22.737443 H    352 MOH     0.0372 ****
2418 O1     -6.812272    5.177813   23.118573 O    352 MOH    -0.6497 ****
2419 HO1    -6.630406    5.724049   23.886491 H    352 MOH     0.4215 ****
2420 HC1   -13.950053    1.447240   19.004626 H    353 MOH     0.0372 ****
2421 C1    -14.874391    1.962450   18.742996 C    353 MOH     0.1166 ****
2422 HC2   -15.587418    1.915501   19.566776 H    353 MOH     0.0372 ****
2423 HC3   -15.310290    1.516234   17.849921 H    353 MOH     0.0372 ****
2424 O1    -14.636522    3.311710   18.463689 O    353 MOH    -0.6497 ****
2425 HO1   -14.131918    3.341921   17.647688 H    353 MOH     0.4215 ****
2426 HC1   -23.690529   -8.772439   19.544148 H    354 MOH     0.0372 ****
2427 C1    -23.176688   -8.463395   20.454195 C    354 MOH     0.1166 ****
2428 HC2   -22.093578   -8.489523   20.338229 H    354 MOH     0.0372 ****
2429 HC3   -23.479796   -9.102712   21.284338 H    354 MOH     0.0372 ****
2430 O1    -23.616051   -7.205990   20.737038 O    354 MOH    -0.6497 ****
2431 HO1   -23.948027   -6.843874   19.911844 H    354 MOH     0.4215 ****
2432 HC1   -21.838967   -5.563608   23.277672 H    355 MOH     0.0372 ****
2433 C1    -22.721158   -4.980221   23.538595 C    355 MOH     0.1166 ****
2434 HC2   -22.416895   -3.981645   23.849722 H    355 MOH     0.0372 ****
2435 HC3   -23.256362   -5.470119   24.351767 H    355 MOH     0.0372 ****
2436 O1    -23.542150   -4.925107   22.371161 O    355 MOH    -0.6497 ****
2437 HO1   -23.632794   -5.813864   22.018315 H    355 MOH     0.4215 ****
2438 HC1   -14.995634    8.181704   31.189490 H    356 MOH     0.0372 ****
2439 C1    -14.049935    8.524633   31.609511 C    356 MOH     0.1166 ****
2440 HC2   -14.163673    9.499121   32.085394 H    356 MOH     0.0372 ****
2441 HC3   -13.320164    8.638126   30.807652 H    356 MOH     0.0372 ****
2442 O1    -13.608262    7.602400   32.581783 O    356 MOH    -0.6497 ****
2443 HO1   -12.776877    7.214156   32.299648 H    356 MOH     0.4215 ****
2444 HC1   -15.077618    0.115943   26.260249 H    357 MOH     0.0372 ****
2445 C1    -14.295886    0.789144   25.908817 C    357 MOH     0.1166 ****
2446 HC2   -13.736433    0.354360   25.080795 H    357 MOH     0.0372 ****
2447 HC3   -13.610571    0.994085   26.730475 H    357 MOH     0.0372 ****
2448 O1    -14.869772    1.988578   25.463339 O    357 MOH    -0.6497 ****
2449 HO1   -14.674628    2.631977   26.149233 H    357 MOH     0.4215 ****
2450 HC1   -10.177762   22.856842   26.531778 H    358 MOH     0.0372 ****
2451 C1    -11.214105   22.995647   26.838662 C    358 MOH     0.1166 ****
2452 HC2   -11.777599   23.359804   25.980234 H    358 MOH     0.0372 ****
2453 HC3   -11.283965   23.745599   27.627086 H    358 MOH     0.0372 ****
2454 O1    -11.739494   21.752939   27.255855 O    358 MOH    -0.6497 ****
2455 HO1   -12.502174   21.905215   27.818005 H    358 MOH     0.4215 ****
2456 HC1    -3.948730    7.450368   21.716381 H    359 MOH     0.0372 ****
2457 C1     -4.135791    6.464449   22.141352 C    359 MOH     0.1166 ****
2458 HC2    -4.527812    6.559162   23.153929 H    359 MOH     0.0372 ****
2459 HC3    -3.178544    5.948014   22.209941 H    359 MOH     0.0372 ****
2460 O1     -4.976990    5.660608   21.292116 O    359 MOH    -0.6497 ****
2461 HO1    -5.692905    5.314413   21.829518 H    359 MOH     0.4215 ****
2462 HC1    -1.318322    7.922303   28.353285 H    360 MOH     0.0372 ****
2463 C1     -2.167027    8.357088   28.881494 C    360 MOH     0.1166 ****
2464 HC2    -2.303281    9.384240   28.543497 H    360 MOH     0.0372 ****
2465 HC3    -2.002482    8.344840   29.959124 H    360 MOH     0.0372 ****
2466 O1     -3.332697    7.658983   28.547739 O    360 MOH    -0.6497 ****
2467 HO1    -3.305562    6.858408   29.077362 H    360 MOH     0.4215 ****
2468 HC1    -2.423948   14.998063   18.739461 H    361 MOH     0.0372 ****
2469 C1     -3.216072   14.465707   19.265548 C    361 MOH     0.1166 ****
2470 HC2    -3.188937   14.723311   20.324087 H    361 MOH     0.0372 ****
2471 HC3    -3.050373   13.398137   19.123420 H    361 MOH     0.0372 ****
2472 O1     -4.444673   14.881304   18.709762 O    361 MOH    -0.6497 ****
2473 HO1    -5.139226   14.522453   19.267670 H    361 MOH     0.4215 ****
2474 HC1    -1.727663   22.889094   17.620111 H    362 MOH     0.0372 ****
2475 C1     -1.190150   23.231614   16.735520 C    362 MOH     0.1166 ****
2476 HC2    -1.518085   22.657617   15.868607 H    362 MOH     0.0372 ****
2477 HC3    -0.130712   23.047086   16.913711 H    362 MOH     0.0372 ****
2478 O1     -1.450535   24.612310   16.466820 O    362 MOH    -0.6497 ****
2479 HO1    -1.191305   24.817250   15.565966 H    362 MOH     0.4215 ****
2480 HC1    -7.269071   20.032172   20.688954 H    363 MOH     0.0372 ****
2481 C1     -7.223460   19.577384   19.699005 C    363 MOH     0.1166 ****
2482 HC2    -6.306051   18.998488   19.590110 H    363 MOH     0.0372 ****
2483 HC3    -7.233853   20.355097   18.936037 H    363 MOH     0.0372 ****
2484 O1     -8.326777   18.740883   19.481923 O    363 MOH    -0.6497 ****
2485 HO1    -8.067546   17.853351   19.739310 H    363 MOH     0.4215 ****
2486 HC1     0.838081   15.475305   19.184231 H    364 MOH     0.0372 ****
2487 C1      1.036690   16.435913   19.658700 C    364 MOH     0.1166 ****
2488 HC2     2.101324   16.653101   19.575261 H    364 MOH     0.0372 ****
2489 HC3     0.807482   16.400804   20.723603 H    364 MOH     0.0372 ****
2490 O1      0.243411   17.431631   19.007454 O    364 MOH    -0.6497 ****
2491 HO1     0.290753   18.207711   19.571019 H    364 MOH     0.4215 ****
2492 HC1   -13.587015   14.188506   27.629914 H    365 MOH     0.0372 ****
2493 C1    -12.672492   14.494692   27.122212 C    365 MOH     0.1166 ****
2494 HC2   -12.077244   15.149114   27.759315 H    365 MOH     0.0372 ****
2495 HC3   -12.947888   15.040929   26.219943 H    365 MOH     0.0372 ****
2496 O1    -11.970434   13.355271   26.724111 O    365 MOH    -0.6497 ****
2497 HO1   -11.035704   13.554088   26.813913 H    365 MOH     0.4215 ****
2498 HC1    -0.320661   10.008044   24.196204 H    366 MOH     0.0372 ****
2499 C1     -0.273318   10.731460   25.010791 C    366 MOH     0.1166 ****
2500 HC2    -1.066597   11.458958   24.839671 H    366 MOH     0.0372 ****
2501 HC3     0.687393   11.245036   24.964122 H    366 MOH     0.0372 ****
2502 O1     -0.458647   10.089693   26.304796 O    366 MOH    -0.6497 ****
2503 HO1    -0.650328   10.765344   26.960284 H    366 MOH     0.4215 ****
2504 HC1   -16.641198   13.850885   22.774212 H    367 MOH     0.0372 ****
2505 C1    -16.598474   14.092568   23.836286 C    367 MOH     0.1166 ****
2506 HC2   -15.561553   14.030514   24.167212 H    367 MOH     0.0372 ****
2507 HC3   -17.196032   13.390789   24.418235 H    367 MOH     0.0372 ****
2508 O1    -17.032064   15.386307   24.105694 O    367 MOH    -0.6497 ****
2509 HO1   -17.801672   15.577775   23.564757 H    367 MOH     0.4215 ****
2510 HC1   -13.331826   15.960304   23.161000 H    368 MOH     0.0372 ****
2511 C1    -13.872226   16.829873   22.787647 C    368 MOH     0.1166 ****
2512 HC2   -14.315631   16.500416   21.847902 H    368 MOH     0.0372 ****
2513 HC3   -13.149384   17.632897   22.641276 H    368 MOH     0.0372 ****
2514 O1    -14.863536   17.168310   23.781132 O    368 MOH    -0.6497 ****
2515 HO1   -15.499199   16.454284   23.863864 H    368 MOH     0.4215 ****
2516 HC1   -14.888363    9.188281   18.851891 H    369 MOH     0.0372 ****
2517 C1    -14.475557   10.195838   18.815121 C    369 MOH     0.1166 ****
2518 HC2   -14.561005   10.666548   19.794464 H    369 MOH     0.0372 ****
2519 HC3   -15.052330   10.783715   18.100943 H    369 MOH     0.0372 ****
2520 O1    -13.136104   10.140316   18.383786 O    369 MOH    -0.6497 ****
2521 HO1   -13.102618    9.479770   17.687993 H    369 MOH     0.4215 ****
2522 HC1     1.224906    7.345040   24.800780 H    370 MOH     0.0372 ****
2523 C1      0.544787    6.776350   25.435055 C    370 MOH     0.1166 ****
2524 HC2     0.899281    6.813501   26.465310 H    370 MOH     0.0372 ****
2525 HC3     0.489939    5.739808   25.103422 H    370 MOH     0.0372 ****
2526 O1     -0.687855    7.399337   25.353031 O    370 MOH    -0.6497 ****
2527 HO1    -0.585664    8.292176   25.688906 H    370 MOH     0.4215 ****
2528 HC1    -4.907131   13.808427   29.784469 H    371 MOH     0.0372 ****
2529 C1     -5.047427   13.654109   28.715323 C    371 MOH     0.1166 ****
2530 HC2    -5.243726   14.608594   28.226006 H    371 MOH     0.0372 ****
2531 HC3    -5.881698   12.975192   28.539254 H    371 MOH     0.0372 ****
2532 O1     -3.871942   13.099708   28.163780 O    371 MOH    -0.6497 ****
2533 HO1    -3.225310   12.998871   28.865937 H    371 MOH     0.4215 ****
2534 HC1    -7.450936   13.602262   22.415709 H    372 MOH     0.0372 ****
2535 C1     -7.612017   12.589398   22.784112 C    372 MOH     0.1166 ****
2536 HC2    -8.363150   12.634305   23.571829 H    372 MOH     0.0372 ****
2537 HC3    -6.687102   12.188906   23.199183 H    372 MOH     0.0372 ****
2538 O1     -8.063505   11.742691   21.727694 O    372 MOH    -0.6497 ****
2539 HO1    -7.658782   10.884553   21.877601 H    372 MOH     0.4215 ****
2540 HC1     1.554573    7.719404   30.029835 H    373 MOH     0.0372 ****
2541 C1      1.388296    7.806361   31.103930 C    373 MOH     0.1166 ****
2542 HC2     1.460465    8.862499   31.363438 H    373 MOH     0.0372 ****
2543 HC3     2.175225    7.252368   31.616583 H    373 MOH     0.0372 ****
2544 O1      0.062700    7.287477   31.337983 O    373 MOH    -0.6497 ****
2545 HO1    -0.248492    7.636121   32.176611 H    373 MOH     0.4215 ****
2546 HC1    -3.649662   26.646203   22.202870 H    374 MOH     0.0372 ****
2547 C1     -4.230477   27.027507   23.042913 C    374 MOH     0.1166 ****
2548 HC2    -3.933141   28.034655   23.334948 H    374 MOH     0.0372 ****
2549 HC3    -4.022630   26.372268   23.889320 H    374 MOH     0.0372 ****
2550 O1     -5.609766   26.983824   22.757949 O    374 MOH    -0.6497 ****
2551 HO1    -6.015066   26.308990   23.307371 H    374 MOH     0.4215 ****
2552 HC1     1.148118   13.857417   28.848260 H    375 MOH     0.0372 ****
2553 C1      1.131375   12.850268   28.430359 C    375 MOH     0.1166 ****
2554 HC2     1.633093   12.191764   29.138173 H    375 MOH     0.0372 ****
2555 HC3     1.682745   12.821691   27.489907 H    375 MOH     0.0372 ****
2556 O1     -0.211541   12.414667   28.281160 O    375 MOH    -0.6497 ****
2557 HO1    -0.703444   12.675538   29.063927 H    375 MOH     0.4215 ****
2558 HC1    -4.717183   17.648410   27.979932 H    376 MOH     0.0372 ****
2559 C1     -5.780662   17.849269   27.848410 C    376 MOH     0.1166 ****
2560 HC2    -6.362631   16.928260   27.875281 H    376 MOH     0.0372 ****
2561 HC3    -5.945784   18.319979   26.878967 H    376 MOH     0.0372 ****
2562 O1     -6.230995   18.739658   28.827753 O    376 MOH    -0.6497 ****
2563 HO1    -6.120721   19.634130   28.497534 H    376 MOH     0.4215 ****
2564 HC1    -1.004243   20.575959   25.183325 H    377 MOH     0.0372 ****
2565 C1     -1.408388   20.921745   24.232266 C    377 MOH     0.1166 ****
2566 HC2    -2.341387   20.398371   24.020134 H    377 MOH     0.0372 ****
2567 HC3    -0.687278   20.776817   23.428286 H    377 MOH     0.0372 ****
2568 O1     -1.654917   22.287744   24.386416 O    377 MOH    -0.6497 ****
2569 HO1    -0.830461   22.743349   24.574506 H    377 MOH     0.4215 ****
2570 HC1    -5.236798    9.320145   30.386924 H    378 MOH     0.0372 ****
2571 C1     -5.422705    9.905982   29.486777 C    378 MOH     0.1166 ****
2572 HC2    -5.404807    9.282178   28.592994 H    378 MOH     0.0372 ****
2573 HC3    -4.675036   10.691451   29.377882 H    378 MOH     0.0372 ****
2574 O1     -6.665163   10.494267   29.616177 O    378 MOH    -0.6497 ****
2575 HO1    -6.963653   10.604903   28.710374 H    378 MOH     0.4215 ****
2576 HC1    -4.052075   12.895176   31.806087 H    379 MOH     0.0372 ****
2577 C1     -3.298056   12.141549   31.578399 C    379 MOH     0.1166 ****
2578 HC2    -3.784185   11.251976   31.178883 H    379 MOH     0.0372 ****
2579 HC3    -2.809040   11.852101   32.508244 H    379 MOH     0.0372 ****
2580 O1     -2.363903   12.683703   30.633704 O    379 MOH    -0.6497 ****
2581 HO1    -2.147397   13.581441   30.893212 H    379 MOH     0.4215 ****
2582 HC1    -5.806643   21.247936   22.719765 H    380 MOH     0.0372 ****
2583 C1     -6.043934   20.961345   23.745070 C    380 MOH     0.1166 ****
2584 HC2    -5.281831   20.298758   24.154485 H    380 MOH     0.0372 ****
2585 HC3    -6.997139   20.432664   23.725978 H    380 MOH     0.0372 ****
2586 O1     -6.145547   22.087702   24.582991 O    380 MOH    -0.6497 ****
2587 HO1    -5.371898   22.644145   24.463490 H    380 MOH     0.4215 ****
2588 HC1    -8.115467    6.265632   29.071705 H    381 MOH     0.0372 ****
2589 C1     -8.522499    7.266248   28.926748 C    381 MOH     0.1166 ****
2590 HC2    -9.568080    7.220524   28.621278 H    381 MOH     0.0372 ****
2591 HC3    -7.965933    7.723895   28.110040 H    381 MOH     0.0372 ****
2592 O1     -8.367769    8.090093   30.083575 O    381 MOH    -0.6497 ****
2593 HO1    -8.084867    8.970277   29.823360 H    381 MOH     0.4215 ****
2594 HC1    -8.709560   10.671039   31.294142 H    382 MOH     0.0372 ****
2595 C1     -8.621225   11.656959   31.750226 C    382 MOH     0.1166 ****
2596 HC2    -9.222247   11.688802   32.658151 H    382 MOH     0.0372 ****
2597 HC3    -8.973409   12.392214   31.026855 H    382 MOH     0.0372 ****
2598 O1     -7.281195   11.860674   32.057817 O    382 MOH    -0.6497 ****
2599 HO1    -6.796221   11.394047   31.374045 H    382 MOH     0.4215 ****
2600 HC1    -6.745992    5.833705   32.108022 H    383 MOH     0.0372 ****
2601 C1     -5.669811    5.841870   31.938316 C    383 MOH     0.1166 ****
2602 HC2    -5.249500    6.702049   32.458040 H    383 MOH     0.0372 ****
2603 HC3    -5.466006    5.902291   30.869171 H    383 MOH     0.0372 ****
2604 O1     -5.076295    4.697142   32.438948 O    383 MOH    -0.6497 ****
2605 HO1    -5.538175    4.435863   33.237978 H    383 MOH     0.4215 ****
2606 HC1   -10.099819   20.501658   24.706735 H    384 MOH     0.0372 ****
2607 C1    -10.682366   19.628823   25.002306 C    384 MOH     0.1166 ****
2608 HC2   -10.346348   18.713938   24.515109 H    384 MOH     0.0372 ****
2609 HC3   -11.702544   19.808860   24.665016 H    384 MOH     0.0372 ****
2610 O1    -10.689294   19.481854   26.405205 O    384 MOH    -0.6497 ****
2611 HO1   -10.875778   20.343666   26.786336 H    384 MOH     0.4215 ****
2612 HC1   -10.930627   17.487152   28.977660 H    385 MOH     0.0372 ****
2613 C1     -9.898902   17.203420   28.771892 C    385 MOH     0.1166 ****
2614 HC2    -9.628124   16.377534   29.428794 H    385 MOH     0.0372 ****
2615 HC3    -9.250537   18.054209   28.982610 H    385 MOH     0.0372 ****
2616 O1     -9.760915   16.884170   27.410004 O    385 MOH    -0.6497 ****
2617 HO1   -10.057673   17.676988   26.957456 H    385 MOH     0.4215 ****
2618 HC1    -5.436561   16.759654   23.291107 H    386 MOH     0.0372 ****
2619 C1     -5.422128   17.467148   22.461671 C    386 MOH     0.1166 ****
2620 HC2    -6.412861   17.898258   22.320250 H    386 MOH     0.0372 ****
2621 HC3    -5.083223   16.973984   21.550917 H    386 MOH     0.0372 ****
2622 O1     -4.545132   18.518796   22.768555 O    386 MOH    -0.6497 ****
2623 HO1    -4.348833   18.525736   23.708300 H    386 MOH     0.4215 ****
2624 HC1   -14.233647   13.303424   21.075035 H    387 MOH     0.0372 ****
2625 C1    -13.445564   13.337717   20.322673 C    387 MOH     0.1166 ****
2626 HC2   -13.865875   13.729227   19.395656 H    387 MOH     0.0372 ****
2627 HC3   -13.047770   12.339958   20.135997 H    387 MOH     0.0372 ****
2628 O1    -12.439243   14.237904   20.672691 O    387 MOH    -0.6497 ****
2629 HO1   -11.611900   13.772909   20.529148 H    387 MOH     0.4215 ****
2630 HC1   -11.029931   12.682886   18.356916 H    388 MOH     0.0372 ****
2631 C1    -10.599805   12.112972   19.181403 C    388 MOH     0.1166 ****
2632 HC2    -9.824423   11.469164   18.766331 H    388 MOH     0.0372 ****
2633 HC3   -11.345164   11.464265   19.641729 H    388 MOH     0.0372 ****
2634 O1    -10.030537   13.007444   20.121148 O    388 MOH    -0.6497 ****
2635 HO1    -9.616000   12.468148   20.797849 H    388 MOH     0.4215 ****
2636 HC1    -0.682659   21.398171   20.642285 H    389 MOH     0.0372 ****
2637 C1      0.060968   20.877246   20.039830 C    389 MOH     0.1166 ****
2638 HC2     0.976646   21.466757   19.991747 H    389 MOH     0.0372 ****
2639 HC3    -0.275050   20.755996   19.009576 H    389 MOH     0.0372 ****
2640 O1      0.399295   19.648419   20.623901 O    389 MOH    -0.6497 ****
2641 HO1    -0.304495   19.376934   21.217163 H    389 MOH     0.4215 ****
2642 HC1     0.033255   15.721070   25.302119 H    390 MOH     0.0372 ****
2643 C1     -0.006005   14.651460   25.097058 C    390 MOH     0.1166 ****
2644 HC2    -0.784273   14.223207   25.728504 H    390 MOH     0.0372 ****
2645 HC3     0.962789   14.215042   25.341010 H    390 MOH     0.0372 ****
2646 O1     -0.294680   14.359562   23.728806 O    390 MOH    -0.6497 ****
2647 HO1     0.134869   13.545107   23.456570 H    390 MOH     0.4215 ****
2648 HC1     4.194796   14.401204   23.055641 H    391 MOH     0.0372 ****
2649 C1      3.672294   15.330377   23.283329 C    391 MOH     0.1166 ****
2650 HC2     2.639992   15.117271   23.561929 H    391 MOH     0.0372 ****
2651 HC3     3.712708   15.976634   22.407224 H    391 MOH     0.0372 ****
2652 O1      4.359918   15.893759   24.349646 O    391 MOH    -0.6497 ****
2653 HO1     4.822376   15.178508   24.792295 H    391 MOH     0.4215 ****
2654 HC1    -0.932074   16.545732   22.674510 H    392 MOH     0.0372 ****
2655 C1     -1.869114   16.801703   22.181657 C    392 MOH     0.1166 ****
2656 HC2    -2.707427   16.469798   22.794718 H    392 MOH     0.0372 ****
2657 HC3    -1.887589   16.302824   21.212920 H    392 MOH     0.0372 ****
2658 O1     -1.899714   18.185257   21.964575 O    392 MOH    -0.6497 ****
2659 HO1    -2.815968   18.426532   21.812547 H    392 MOH     0.4215 ****
2660 HC1    -4.261653   11.835771   20.966847 H    393 MOH     0.0372 ****
2661 C1     -3.956235   10.855567   20.599859 C    393 MOH     0.1166 ****
2662 HC2    -3.007071   10.935176   20.070236 H    393 MOH     0.0372 ****
2663 HC3    -4.722956   10.463241   19.933057 H    393 MOH     0.0372 ****
2664 O1     -3.802660    9.934967   21.673954 O    393 MOH    -0.6497 ****
2665 HO1    -2.953378    9.500999   21.565767 H    393 MOH     0.4215 ****
2666 HC1     1.579399    9.187465   27.639814 H    394 MOH     0.0372 ****
2667 C1      2.450621    9.690835   27.220500 C    394 MOH     0.1166 ****
2668 HC2     2.152708   10.640012   26.777144 H    394 MOH     0.0372 ****
2669 HC3     2.889407    9.079279   26.431369 H    394 MOH     0.0372 ****
2670 O1      3.419414    9.965994   28.206207 O    394 MOH    -0.6497 ****
2671 HO1     3.849540    9.127860   28.389347 H    394 MOH     0.4215 ****
2672 HC1    -6.975777   15.511231   15.891942 H    395 MOH     0.0372 ****
2673 C1     -6.052017   15.699433   15.343934 C    395 MOH     0.1166 ****
2674 HC2    -5.461387   14.784549   15.381411 H    395 MOH     0.0372 ****
2675 HC3    -5.529515   16.522870   15.831131 H    395 MOH     0.0372 ****
2676 O1     -6.325103   16.051751   13.989825 O    395 MOH    -0.6497 ****
2677 HO1    -5.543371   16.473880   13.626372 H    395 MOH     0.4215 ****
2678 HC1    -9.389101   10.773101   26.802600 H    396 MOH     0.0372 ****
2679 C1     -8.532313   10.515088   26.178931 C    396 MOH     0.1166 ****
2680 HC2    -8.346407   11.308315   25.455561 H    396 MOH     0.0372 ****
2681 HC3    -8.778265    9.611226   25.621731 H    396 MOH     0.0372 ****
2682 O1     -7.368953   10.324436   26.980083 O    396 MOH    -0.6497 ****
2683 HO1    -6.672668    9.976609   26.418641 H    396 MOH     0.4215 ****
2684 HC1    -3.334429   10.433030   25.985891 H    397 MOH     0.0372 ****
2685 C1     -3.832682    9.657358   25.406064 C    397 MOH     0.1166 ****
2686 HC2    -3.105798    8.911897   25.083623 H    397 MOH     0.0372 ****
2687 HC3    -4.295140   10.131335   24.539858 H    397 MOH     0.0372 ****
2688 O1     -4.807827    9.026615   26.202973 O    397 MOH    -0.6497 ****
2689 HO1    -4.336132    8.657558   26.952506 H    397 MOH     0.4215 ****
2690 HC1    -4.009929   22.131793   21.692339 H    398 MOH     0.0372 ****
2691 C1     -3.416990   21.793355   20.843104 C    398 MOH     0.1166 ****
2692 HC2    -3.049795   20.797638   21.091298 H    398 MOH     0.0372 ****
2693 HC3    -2.570017   22.463291   20.691076 H    398 MOH     0.0372 ****
2694 O1     -4.221239   21.742324   19.672842 O    398 MOH    -0.6497 ****
2695 HO1    -3.814207   21.091985   19.095136 H    398 MOH     0.4215 ****
2696 HC1    -8.253453   22.452676   27.354850 H    399 MOH     0.0372 ****
2697 C1     -8.072165   21.414501   27.634157 C    399 MOH     0.1166 ****
2698 HC2    -8.731499   20.777225   27.045137 H    399 MOH     0.0372 ****
2699 HC3    -8.296755   21.259775   28.689867 H    399 MOH     0.0372 ****
2700 O1     -6.741950   21.018908   27.393034 O    399 MOH    -0.6497 ****
2701 HO1    -6.562394   21.127094   26.456117 H    399 MOH     0.4215 ****
2702 HC1    -4.995466   14.065623   23.660924 H    400 MOH     0.0372 ****
2703 C1     -4.068241   13.888852   24.204689 C    400 MOH     0.1166 ****
2704 HC2    -4.134059   12.964170   24.778153 H    400 MOH     0.0372 ****
2705 HC3    -3.844807   14.725353   24.867248 H    400 MOH     0.0372 ****
2706 O1     -3.064806   13.786790   23.274137 O    400 MOH    -0.6497 ****
2707 HO1    -2.254784   14.127677   23.660924 H    400 MOH     0.4215 ****
2708 HC1    -7.092402   14.209735   18.388029 H    401 MOH     0.0372 ****
2709 C1     -6.812387   13.301383   18.921894 C    401 MOH     0.1166 ****
2710 HC2    -6.004097   12.805769   18.384493 H    401 MOH     0.0372 ****
2711 HC3    -7.643194   12.595521   18.945229 H    401 MOH     0.0372 ****
2712 O1     -6.374755   13.562662   20.241356 O    401 MOH    -0.6497 ****
2713 HO1    -6.722320   12.858025   20.792899 H    401 MOH     0.4215 ****
2714 HC1    -2.658352    3.722245   30.228532 H    402 MOH     0.0372 ****
2715 C1     -2.076960    4.479545   30.755327 C    402 MOH     0.1166 ****
2716 HC2    -1.023296    4.235413   30.618148 H    402 MOH     0.0372 ****
2717 HC3    -2.306746    4.490160   31.820229 H    402 MOH     0.0372 ****
2718 O1     -2.205132    5.739808   30.203076 O    402 MOH    -0.6497 ****
2719 HO1    -1.406656    6.216234   30.444200 H    402 MOH     0.4215 ****
2720 HC1    -2.437804    3.399729   25.565870 H    403 MOH     0.0372 ****
2721 C1     -2.470713    4.484853   25.466875 C    403 MOH     0.1166 ****
2722 HC2    -2.025576    4.953930   26.344394 H    403 MOH     0.0372 ****
2723 HC3    -3.508211    4.810635   25.391922 H    403 MOH     0.0372 ****
2724 O1     -1.784821    4.862074   24.301563 O    403 MOH    -0.6497 ****
2725 HO1    -1.683207    5.815334   24.341868 H    403 MOH     0.4215 ****
2726 HC1     5.995551   12.216667   26.748860 H    404 MOH     0.0372 ****
2727 C1      5.089689   12.541224   26.237621 C    404 MOH     0.1166 ****
2728 HC2     4.204033   12.148490   26.736839 H    404 MOH     0.0372 ****
2729 HC3     5.097194   12.192989   25.204538 H    404 MOH     0.0372 ****
2730 O1      4.996735   13.933351   26.251763 O    404 MOH    -0.6497 ****
2731 HO1     5.266935   14.218717   27.127869 H    404 MOH     0.4215 ****
2732 HC1    -6.983860   15.743524   23.856086 H    405 MOH     0.0372 ****
2733 C1     -7.614327   15.429989   24.687643 C    405 MOH     0.1166 ****
2734 HC2    -8.590626   15.117271   24.317119 H    405 MOH     0.0372 ****
2735 HC3    -7.784645   16.257100   25.377779 H    405 MOH     0.0372 ****
2736 O1     -7.012150   14.375892   25.383436 O    405 MOH    -0.6497 ****
2737 HO1    -7.662824   14.021533   25.992962 H    405 MOH     0.4215 ****
2738 HC1   -14.983625   10.408127   27.052915 H    406 MOH     0.0372 ****
2739 C1    -14.339880   11.192372   26.656228 C    406 MOH     0.1166 ****
2740 HC2   -14.305816   11.993763   27.393741 H    406 MOH     0.0372 ****
2741 HC3   -14.738829   11.632464   25.741232 H    406 MOH     0.0372 ****
2742 O1    -13.028140   10.727785   26.425712 O    406 MOH    -0.6497 ****
2743 HO1   -12.585890   11.514888   26.100442 H    406 MOH     0.4215 ****
2744 HC1    -8.491322   17.443878   21.895278 H    407 MOH     0.0372 ****
2745 C1     -8.624689   16.421216   21.542432 C    407 MOH     0.1166 ****
2746 HC2    -9.623505   16.343649   21.113925 H    407 MOH     0.0372 ****
2747 HC3    -8.551366   15.704332   22.359848 H    407 MOH     0.0372 ****
2748 O1     -7.704393   16.144015   20.530562 O    407 MOH    -0.6497 ****
2749 HO1    -7.588346   15.196063   20.438638 H    407 MOH     0.4215 ****
2750 HC1    -6.304319    8.169293   20.853003 H    408 MOH     0.0372 ****
2751 C1     -7.041018    8.515080   21.577788 C    408 MOH     0.1166 ****
2752 HC2    -7.311795    7.707156   22.258731 H    408 MOH     0.0372 ****
2753 HC3    -7.949767    8.814734   21.057357 H    408 MOH     0.0372 ****
2754 O1     -6.601077    9.596529   22.371868 O    408 MOH    -0.6497 ****
2755 HO1    -5.653645    9.527944   22.507633 H    408 MOH     0.4215 ****
2756 HC1    -5.355732   24.724578   21.205142 H    409 MOH     0.0372 ****
2757 C1     -6.203282   24.059950   21.374848 C    409 MOH     0.1166 ****
2758 HC2    -7.068730   24.703757   21.531118 H    409 MOH     0.0372 ****
2759 HC3    -5.970610   23.458192   22.253074 H    409 MOH     0.0372 ****
2760 O1     -6.336650   23.358171   20.159331 O    409 MOH    -0.6497 ****
2761 HO1    -5.490832   22.952372   19.954270 H    409 MOH     0.4215 ****
2762 HC1    -7.467102    5.918621   26.615216 H    410 MOH     0.0372 ****
2763 C1     -6.431913    6.222766   26.458946 C    410 MOH     0.1166 ****
2764 HC2    -5.843016    5.320129   26.291361 H    410 MOH     0.0372 ****
2765 HC3    -6.058945    6.779616   27.317373 H    410 MOH     0.0372 ****
2766 O1     -6.434223    6.954346   25.282320 O    410 MOH    -0.6497 ****
2767 HO1    -5.796828    7.663474   25.391922 H    410 MOH     0.4215 ****
2768 HC1    -9.326170   25.730502   24.455005 H    411 MOH     0.0372 ****
2769 C1     -8.454949   25.075263   24.435913 C    411 MOH     0.1166 ****
2770 HC2    -8.455526   24.503716   23.508189 H    411 MOH     0.0372 ****
2771 HC3    -8.482661   24.366136   25.263935 H    411 MOH     0.0372 ****
2772 O1     -7.276577   25.859917   24.509452 O    411 MOH    -0.6497 ****
2773 HO1    -7.306021   26.370635   25.321918 H    411 MOH     0.4215 ****
2774 HC1    -2.351779   17.849677   19.004626 H    412 MOH     0.0372 ****
2775 C1     -3.276117   18.364886   18.742996 C    412 MOH     0.1166 ****
2776 HC2    -3.989144   18.317938   19.566776 H    412 MOH     0.0372 ****
2777 HC3    -3.712016   17.918671   17.849921 H    412 MOH     0.0372 ****
2778 O1     -3.038248   19.714147   18.463689 O    412 MOH    -0.6497 ****
2779 HO1    -2.533644   19.744357   17.647688 H    412 MOH     0.4215 ****
2780 HC1   -12.092255    7.629997   19.544148 H    413 MOH     0.0372 ****
2781 C1    -11.578413    7.939041   20.454195 C    413 MOH     0.1166 ****
2782 HC2   -10.495304    7.912913   20.338229 H    413 MOH     0.0372 ****
2783 HC3   -11.881522    7.299725   21.284338 H    413 MOH     0.0372 ****
2784 O1    -12.017777    9.196446   20.737038 O    413 MOH    -0.6497 ****
2785 HO1   -12.349753    9.558562   19.911844 H    413 MOH     0.4215 ****
2786 HC1   -10.240693   10.838829   23.277672 H    414 MOH     0.0372 ****
2787 C1    -11.122884   11.422216   23.538595 C    414 MOH     0.1166 ****
2788 HC2   -10.818621   12.420791   23.849722 H    414 MOH     0.0372 ****
2789 HC3   -11.658088   10.932318   24.351767 H    414 MOH     0.0372 ****
2790 O1    -11.943876   11.477329   22.371161 O    414 MOH    -0.6497 ****
2791 HO1   -12.034520   10.588573   22.018315 H    414 MOH     0.4215 ****
2792 HC1    -2.703963    1.846344   28.728759 H    415 MOH     0.0372 ****
2793 C1     -1.866227    2.074555   28.069028 C    415 MOH     0.1166 ****
2794 HC2    -1.508847    3.075988   28.304494 H    415 MOH     0.0372 ****
2795 HC3    -2.216679    2.029647   27.038066 H    415 MOH     0.0372 ****
2796 O1     -0.785428    1.132726   28.273382 O    415 MOH    -0.6497 ****
2797 HO1     0.047689    1.520970   27.995489 H    415 MOH     0.4215 ****
2798 HC1    -8.510374   12.701666   28.344092 H    416 MOH     0.0372 ****
2799 C1     -8.822143   13.745149   28.308737 C    416 MOH     0.1166 ****
2800 HC2    -8.016162   14.402428   28.636835 H    416 MOH     0.0372 ****
2801 HC3    -9.665075   13.868440   28.987559 H    416 MOH     0.0372 ****
2802 O1     -9.275363   14.091343   27.014732 O    416 MOH    -0.6497 ****
2803 HO1    -9.486673   15.027048   27.044430 H    416 MOH     0.4215 ****
2804 HC1   -12.785076   11.872514   29.160801 H    417 MOH     0.0372 ****
2805 C1    -12.013736   11.579391   29.873564 C    417 MOH     0.1166 ****
2806 HC2   -11.115956   11.323011   29.310707 H    417 MOH     0.0372 ****
2807 HC3   -12.343980   10.691043   30.412380 H    417 MOH     0.0372 ****
2808 O1    -11.753351   12.656759   30.782196 O    417 MOH    -0.6497 ****
2809 HO1   -12.419613   12.631856   31.473040 H    417 MOH     0.4215 ****
2810 HC1    -3.479344   16.518379   26.260249 H    418 MOH     0.0372 ****
2811 C1     -2.697612   17.191581   25.908817 C    418 MOH     0.1166 ****
2812 HC2    -2.138159   16.756796   25.080795 H    418 MOH     0.0372 ****
2813 HC3    -2.012297   17.396521   26.730475 H    418 MOH     0.0372 ****
2814 O1     -3.271498   18.391014   25.463339 O    418 MOH    -0.6497 ****
2815 HO1    -3.076353   19.034413   26.149233 H    418 MOH     0.4215 ****
2816 HC1    -3.290088   25.590718   18.851891 H    419 MOH     0.0372 ****
2817 C1     -2.877283   26.598274   18.815121 C    419 MOH     0.1166 ****
2818 HC2    -2.962731   27.068985   19.794464 H    419 MOH     0.0372 ****
2819 HC3    -3.454056   27.186152   18.100943 H    419 MOH     0.0372 ****
2820 O1     -1.537830   26.542753   18.383786 O    419 MOH    -0.6497 ****
2821 HO1    -1.504344   25.882207   17.687993 H    419 MOH     0.4215 ****
2822 HC1    -2.635373   29.705860   21.075035 H    420 MOH     0.0372 ****
2823 C1     -1.847290   29.740153   20.322673 C    420 MOH     0.1166 ****
2824 HC2    -2.267601   30.131663   19.395656 H    420 MOH     0.0372 ****
2825 HC3    -1.449496   28.742394   20.135997 H    420 MOH     0.0372 ****
2826 O1     -0.840969   30.640341   20.672691 O    420 MOH    -0.6497 ****
2827 HO1    -0.013626   30.175346   20.529148 H    420 MOH     0.4215 ****
2828 HC1     0.568343   29.085323   18.356916 H    421 MOH     0.0372 ****
2829 C1      0.998469   28.515408   19.181403 C    421 MOH     0.1166 ****
2830 HC2     1.773851   27.871601   18.766331 H    421 MOH     0.0372 ****
2831 HC3     0.253110   27.866702   19.641729 H    421 MOH     0.0372 ****
2832 O1      1.567737   29.409880   20.121148 O    421 MOH    -0.6497 ****
2833 HO1     1.982274   28.870584   20.797849 H    421 MOH     0.4215 ****
2834 HC1     4.622497   31.913667   15.891942 H    422 MOH     0.0372 ****
2835 C1      5.546257   32.101870   15.343934 C    422 MOH     0.1166 ****
2836 HC2     6.136887   31.186985   15.381411 H    422 MOH     0.0372 ****
2837 HC3     6.068759   32.925306   15.831131 H    422 MOH     0.0372 ****
2838 O1      5.273171   32.454188   13.989825 O    422 MOH    -0.6497 ****
2839 HO1     6.054903   32.876317   13.626372 H    422 MOH     0.4215 ****
2840 HC1    -0.493981   24.032434   19.544148 H    423 MOH     0.0372 ****
2841 C1      0.019861   24.341478   20.454195 C    423 MOH     0.1166 ****
2842 HC2     1.102970   24.315350   20.338229 H    423 MOH     0.0372 ****
2843 HC3    -0.283248   23.702161   21.284338 H    423 MOH     0.0372 ****
2844 O1     -0.419503   25.598883   20.737038 O    423 MOH    -0.6497 ****
2845 HO1    -0.751479   25.960999   19.911844 H    423 MOH     0.4215 ****
2846 HC1   -21.776036  -18.149249   12.326851 H    424 MOH     0.0372 ****
2847 C1    -22.812379  -18.010445   12.633735 C    424 MOH     0.1166 ****
2848 HC2   -23.375873  -17.646287   11.775308 H    424 MOH     0.0372 ****
2849 HC3   -22.882239  -17.260493   13.422159 H    424 MOH     0.0372 ****
2850 O1    -23.337768  -19.253153   13.050928 O    424 MOH    -0.6497 ****
2851 HO1   -24.100448  -19.100876   13.613078 H    424 MOH     0.4215 ****
2852 HC1    -8.909785  -22.702034   15.143965 H    425 MOH     0.0372 ****
2853 C1     -8.476195  -22.508933   16.124722 C    425 MOH     0.1166 ****
2854 HC2    -8.190407  -21.458102   16.175633 H    425 MOH     0.0372 ****
2855 HC3    -7.588230  -23.128245   16.251294 H    425 MOH     0.0372 ****
2856 O1     -9.430555  -22.823692   17.132349 O    425 MOH    -0.6497 ****
2857 HO1    -9.229637  -23.715306   17.425091 H    425 MOH     0.4215 ****
2858 HC1    -4.840043  -24.313390   10.528679 H    426 MOH     0.0372 ****
2859 C1     -5.034610  -23.572011   11.303668 C    426 MOH     0.1166 ****
2860 HC2    -6.098666  -23.529962   11.536306 H    426 MOH     0.0372 ****
2861 HC3    -4.733233  -22.583642   10.956478 H    426 MOH     0.0372 ****
2862 O1     -4.364884  -23.902284   12.514942 O    426 MOH    -0.6497 ****
2863 HO1    -4.582545  -24.796756   12.787178 H    426 MOH     0.4215 ****
2864 HC1   -20.726413  -19.600572   16.995877 H    427 MOH     0.0372 ****
2865 C1    -20.122505  -19.049028   17.716419 C    427 MOH     0.1166 ****
2866 HC2   -19.310750  -19.684263   18.069972 H    427 MOH     0.0372 ****
2867 HC3   -20.770869  -18.763255   18.545148 H    427 MOH     0.0372 ****
2868 O1    -19.617900  -17.925121   17.060931 O    427 MOH    -0.6497 ****
2869 HO1   -18.804991  -17.663434   17.500044 H    427 MOH     0.4215 ****
2870 HC1   -14.022222  -26.008029    4.534534 H    428 MOH     0.0372 ****
2871 C1    -14.814346  -26.540385    5.060622 C    428 MOH     0.1166 ****
2872 HC2   -14.787211  -26.282780    6.119161 H    428 MOH     0.0372 ****
2873 HC3   -14.648647  -27.607954    4.918493 H    428 MOH     0.0372 ****
2874 O1    -16.042947  -26.124788    4.504836 O    428 MOH    -0.6497 ****
2875 HO1   -16.737500  -26.483638    5.062743 H    428 MOH     0.4215 ****
2876 HC1    -9.957098  -19.949216   12.057443 H    429 MOH     0.0372 ****
2877 C1     -9.908601  -21.036789   12.006532 C    429 MOH     0.1166 ****
2878 HC2   -10.286765  -21.391557   11.048402 H    429 MOH     0.0372 ****
2879 HC3   -10.515396  -21.483413   12.794249 H    429 MOH     0.0372 ****
2880 O1     -8.572035  -21.471166   12.080071 O    429 MOH    -0.6497 ****
2881 HO1    -8.604367  -22.430549   12.101284 H    429 MOH     0.4215 ****
2882 HC1   -18.867345  -20.973919    6.484028 H    430 MOH     0.0372 ****
2883 C1    -18.821734  -21.428708    5.494078 C    430 MOH     0.1166 ****
2884 HC2   -17.904325  -22.007604    5.385184 H    430 MOH     0.0372 ****
2885 HC3   -18.832127  -20.650995    4.731110 H    430 MOH     0.0372 ****
2886 O1    -19.925051  -22.265209    5.276996 O    430 MOH    -0.6497 ****
2887 HO1   -19.665820  -23.152740    5.534383 H    430 MOH     0.4215 ****
2888 HC1   -10.760192  -25.530787    4.979305 H    431 MOH     0.0372 ****
2889 C1    -10.561584  -24.570178    5.453773 C    431 MOH     0.1166 ****
2890 HC2    -9.496950  -24.352990    5.370335 H    431 MOH     0.0372 ****
2891 HC3   -10.790792  -24.605288    6.518676 H    431 MOH     0.0372 ****
2892 O1    -11.354863  -23.574461    4.802528 O    431 MOH    -0.6497 ****
2893 HO1   -11.307521  -22.798381    5.366092 H    431 MOH     0.4215 ****
2894 HC1   -11.918935  -30.998048    9.991277 H    432 MOH     0.0372 ****
2895 C1    -11.871592  -30.274632   10.805864 C    432 MOH     0.1166 ****
2896 HC2   -12.664871  -29.547133   10.634745 H    432 MOH     0.0372 ****
2897 HC3   -10.910881  -29.761055   10.759195 H    432 MOH     0.0372 ****
2898 O1    -12.056921  -30.916398   12.099870 O    432 MOH    -0.6497 ****
2899 HO1   -12.248602  -30.240747   12.755358 H    432 MOH     0.4215 ****
2900 HC1    -5.161050  -22.283580   14.310286 H    433 MOH     0.0372 ****
2901 C1     -5.078489  -21.343792   14.856172 C    433 MOH     0.1166 ****
2902 HC2    -5.905254  -20.688145   14.583229 H    433 MOH     0.0372 ****
2903 HC3    -4.121242  -20.881655   14.611513 H    433 MOH     0.0372 ****
2904 O1     -5.119480  -21.701826   16.197554 O    433 MOH    -0.6497 ****
2905 HO1    -4.895469  -20.958814   16.761825 H    433 MOH     0.4215 ****
2906 HC1   -17.253651  -17.659351   14.053606 H    434 MOH     0.0372 ****
2907 C1    -17.919336  -16.800397   14.138459 C    434 MOH     0.1166 ****
2908 HC2   -18.961453  -17.120464   14.131388 H    434 MOH     0.0372 ****
2909 HC3   -17.784236  -16.175777   13.255989 H    434 MOH     0.0372 ****
2910 O1    -17.693592  -16.003496   15.341954 O    434 MOH    -0.6497 ****
2911 HO1   -17.766338  -16.570553   16.111994 H    434 MOH     0.4215 ****
2912 HC1   -24.930100  -25.045788    8.956073 H    435 MOH     0.0372 ****
2913 C1    -25.470500  -24.176219    8.582721 C    435 MOH     0.1166 ****
2914 HC2   -25.913905  -24.505675    7.642976 H    435 MOH     0.0372 ****
2915 HC3   -24.747657  -23.373194    8.436350 H    435 MOH     0.0372 ****
2916 O1    -26.461810  -23.837781    9.576206 O    435 MOH    -0.6497 ****
2917 HO1   -27.097473  -24.551807    9.658937 H    435 MOH     0.4215 ****
2918 HC1   -10.373368  -33.661051   10.595854 H    436 MOH     0.0372 ****
2919 C1    -11.053486  -34.229741   11.230129 C    436 MOH     0.1166 ****
2920 HC2   -10.698993  -34.192591   12.260383 H    436 MOH     0.0372 ****
2921 HC3   -11.108335  -35.266284   10.898496 H    436 MOH     0.0372 ****
2922 O1    -12.286129  -33.606754   11.148104 O    436 MOH    -0.6497 ****
2923 HO1   -12.183938  -32.713915   11.483980 H    436 MOH     0.4215 ****
2924 HC1   -20.313030  -13.405404   16.787281 H    437 MOH     0.0372 ****
2925 C1    -20.767405  -13.107383   15.842586 C    437 MOH     0.1166 ****
2926 HC2   -21.848205  -13.242105   15.890669 H    437 MOH     0.0372 ****
2927 HC3   -20.344784  -13.732003   15.054869 H    437 MOH     0.0372 ****
2928 O1    -20.485658  -11.749957   15.583078 O    437 MOH    -0.6497 ****
2929 HO1   -20.755280  -11.555631   14.682224 H    437 MOH     0.4215 ****
2930 HC1   -19.272068  -10.491736   19.910571 H    438 MOH     0.0372 ****
2931 C1    -19.613859  -11.161263   19.121440 C    438 MOH     0.1166 ****
2932 HC2   -20.112112  -12.037364   19.537219 H    438 MOH     0.0372 ****
2933 HC3   -18.741483  -11.479289   18.550805 H    438 MOH     0.0372 ****
2934 O1    -20.395014  -10.431315   18.199373 O    438 MOH    -0.6497 ****
2935 HO1   -20.367878  -10.918355   17.372765 H    438 MOH     0.4215 ****
2936 HC1   -13.742207  -19.161297   16.870012 H    439 MOH     0.0372 ****
2937 C1    -13.259542  -20.127212   16.722934 C    439 MOH     0.1166 ****
2938 HC2   -14.032614  -20.881247   16.575149 H    439 MOH     0.0372 ****
2939 HC3   -12.694893  -20.369712   17.622374 H    439 MOH     0.0372 ****
2940 O1    -12.351370  -20.099451   15.600048 O    439 MOH    -0.6497 ****
2941 HO1   -11.640074  -19.495244   15.829151 H    439 MOH     0.4215 ****
2942 HC1   -15.247936  -14.359889    7.997943 H    440 MOH     0.0372 ****
2943 C1    -15.828751  -13.978585    8.837986 C    440 MOH     0.1166 ****
2944 HC2   -15.531415  -12.971436    9.130021 H    440 MOH     0.0372 ****
2945 HC3   -15.620904  -14.633823    9.684393 H    440 MOH     0.0372 ****
2946 O1    -17.208040  -14.022267    8.553022 O    440 MOH    -0.6497 ****
2947 HO1   -17.613340  -14.697102    9.102444 H    440 MOH     0.4215 ****
2948 HC1   -10.450155  -27.148675   14.643333 H    441 MOH     0.0372 ****
2949 C1    -10.466899  -28.155823   14.225433 C    441 MOH     0.1166 ****
2950 HC2    -9.965181  -28.814328   14.933247 H    441 MOH     0.0372 ****
2951 HC3    -9.915529  -28.184400   13.284981 H    441 MOH     0.0372 ****
2952 O1    -11.809815  -28.591424   14.076233 O    441 MOH    -0.6497 ****
2953 HO1   -12.301718  -28.330553   14.859001 H    441 MOH     0.4215 ****
2954 HC1   -16.315457  -23.357681   13.775006 H    442 MOH     0.0372 ****
2955 C1    -17.378936  -23.156823   13.643484 C    442 MOH     0.1166 ****
2956 HC2   -17.960905  -24.077831   13.670354 H    442 MOH     0.0372 ****
2957 HC3   -17.544058  -22.686112   12.674041 H    442 MOH     0.0372 ****
2958 O1    -17.829269  -22.266433   14.622827 O    442 MOH    -0.6497 ****
2959 HO1   -17.718995  -21.371961   14.292608 H    442 MOH     0.4215 ****
2960 HC1   -12.602517  -20.430132   10.978398 H    443 MOH     0.0372 ****
2961 C1    -13.006662  -20.084346   10.027340 C    443 MOH     0.1166 ****
2962 HC2   -13.939660  -20.607720    9.815208 H    443 MOH     0.0372 ****
2963 HC3   -12.285552  -20.229274    9.223359 H    443 MOH     0.0372 ****
2964 O1    -13.253191  -18.718347   10.181489 O    443 MOH    -0.6497 ****
2965 HO1   -12.428735  -18.262742   10.369580 H    443 MOH     0.4215 ****
2966 HC1   -17.404917  -19.758156    8.514838 H    444 MOH     0.0372 ****
2967 C1    -17.642208  -20.044746    9.540143 C    444 MOH     0.1166 ****
2968 HC2   -16.880105  -20.707333    9.949558 H    444 MOH     0.0372 ****
2969 HC3   -18.595413  -20.573428    9.521051 H    444 MOH     0.0372 ****
2970 O1    -17.743821  -18.918389   10.378065 O    444 MOH    -0.6497 ****
2971 HO1   -16.970172  -18.361947   10.258564 H    444 MOH     0.4215 ****
2972 HC1   -10.362976  -18.542801    9.311748 H    445 MOH     0.0372 ****
2973 C1     -9.942665  -17.659351    9.792580 C    445 MOH     0.1166 ****
2974 HC2    -9.689208  -16.917564    9.035269 H    445 MOH     0.0372 ****
2975 HC3    -9.055855  -17.942267   10.358973 H    445 MOH     0.0372 ****
2976 O1    -10.947831  -17.162921   10.615653 O    445 MOH    -0.6497 ****
2977 HO1   -10.591606  -16.966554   11.484687 H    445 MOH     0.4215 ****
2978 HC1   -16.011771  -16.234973   21.887642 H    446 MOH     0.0372 ****
2979 C1    -16.054495  -15.360913   21.237811 C    446 MOH     0.1166 ****
2980 HC2   -15.253710  -14.660768   21.476106 H    446 MOH     0.0372 ****
2981 HC3   -16.993843  -14.844887   21.432972 H    446 MOH     0.0372 ****
2982 O1    -16.053917  -15.715273   19.846225 O    446 MOH    -0.6497 ****
2983 HO1   -15.944798  -14.922863   19.315187 H    446 MOH     0.4215 ****
2984 HC1   -21.698093  -20.504434   10.501808 H    447 MOH     0.0372 ****
2985 C1    -22.280640  -21.377268   10.797379 C    447 MOH     0.1166 ****
2986 HC2   -21.944622  -22.292153   10.310182 H    447 MOH     0.0372 ****
2987 HC3   -23.300818  -21.197231   10.460089 H    447 MOH     0.0372 ****
2988 O1    -22.287568  -21.524238   12.200279 O    447 MOH    -0.6497 ****
2989 HO1   -22.474052  -20.662426   12.581409 H    447 MOH     0.4215 ****
2990 HC1   -17.034835  -24.246437    9.086181 H    448 MOH     0.0372 ****
2991 C1    -17.020401  -23.538943    8.256744 C    448 MOH     0.1166 ****
2992 HC2   -18.011135  -23.107833    8.115323 H    448 MOH     0.0372 ****
2993 HC3   -16.681497  -24.032107    7.345991 H    448 MOH     0.0372 ****
2994 O1    -16.143406  -22.487296    8.563629 O    448 MOH    -0.6497 ****
2995 HO1   -15.947107  -22.480355    9.503374 H    448 MOH     0.4215 ****
2996 HC1   -12.280933  -19.607920    6.437359 H    449 MOH     0.0372 ****
2997 C1    -11.537306  -20.128845    5.834904 C    449 MOH     0.1166 ****
2998 HC2   -10.621628  -19.539335    5.786821 H    449 MOH     0.0372 ****
2999 HC3   -11.873324  -20.250095    4.804649 H    449 MOH     0.0372 ****
3000 O1    -11.198979  -21.357673    6.418974 O    449 MOH    -0.6497 ****
3001 HO1   -11.902769  -21.629158    7.012237 H    449 MOH     0.4215 ****
3002 HC1   -11.565019  -25.285021   11.097192 H    450 MOH     0.0372 ****
3003 C1    -11.604279  -26.354632   10.892132 C    450 MOH     0.1166 ****
3004 HC2   -12.382547  -26.782884   11.523578 H    450 MOH     0.0372 ****
3005 HC3   -10.635485  -26.791049   11.136083 H    450 MOH     0.0372 ****
3006 O1    -11.892954  -26.646529    9.523880 O    450 MOH    -0.6497 ****
3007 HO1   -11.463405  -27.460984    9.251644 H    450 MOH     0.4215 ****
3008 HC1    -7.403478  -26.604888    8.850714 H    451 MOH     0.0372 ****
3009 C1     -7.925980  -25.675715    9.078403 C    451 MOH     0.1166 ****
3010 HC2    -8.958282  -25.888820    9.357003 H    451 MOH     0.0372 ****
3011 HC3    -7.885566  -25.029458    8.202297 H    451 MOH     0.0372 ****
3012 O1     -7.238356  -25.112332   10.144720 O    451 MOH    -0.6497 ****
3013 HO1    -6.775898  -25.827583   10.587369 H    451 MOH     0.4215 ****
3014 HC1   -12.530348  -24.460360    8.469584 H    452 MOH     0.0372 ****
3015 C1    -13.467388  -24.204388    7.976730 C    452 MOH     0.1166 ****
3016 HC2   -14.305701  -24.536294    8.589792 H    452 MOH     0.0372 ****
3017 HC3   -13.485863  -24.703267    7.007994 H    452 MOH     0.0372 ****
3018 O1    -13.497987  -22.820834    7.759648 O    452 MOH    -0.6497 ****
3019 HO1   -14.414242  -22.579560    7.607620 H    452 MOH     0.4215 ****
3020 HC1   -15.859927  -29.170320    6.761921 H    453 MOH     0.0372 ****
3021 C1    -15.554509  -30.150524    6.394932 C    453 MOH     0.1166 ****
3022 HC2   -14.605345  -30.070916    5.865309 H    453 MOH     0.0372 ****
3023 HC3   -16.321230  -30.542851    5.728131 H    453 MOH     0.0372 ****
3024 O1    -15.400934  -31.071124    7.469028 O    453 MOH    -0.6497 ****
3025 HO1   -14.551652  -31.505092    7.360840 H    453 MOH     0.4215 ****
3026 HC1   -10.018875  -31.818627   13.434888 H    454 MOH     0.0372 ****
3027 C1     -9.147653  -31.315257   13.015573 C    454 MOH     0.1166 ****
3028 HC2    -9.445566  -30.366079   12.572217 H    454 MOH     0.0372 ****
3029 HC3    -8.708867  -31.926813   12.226442 H    454 MOH     0.0372 ****
3030 O1     -8.178860  -31.040097   14.001280 O    454 MOH    -0.6497 ****
3031 HO1    -7.748734  -31.878231   14.184421 H    454 MOH     0.4215 ****
3032 HC1   -26.733165  -17.926346   16.135328 H    455 MOH     0.0372 ****
3033 C1    -25.870604  -17.463392   15.655910 C    455 MOH     0.1166 ****
3034 HC2   -25.083675  -17.348674   16.401907 H    455 MOH     0.0372 ****
3035 HC3   -26.187569  -16.471349   15.333469 H    455 MOH     0.0372 ****
3036 O1    -25.487821  -18.250903   14.496962 O    455 MOH    -0.6497 ****
3037 HO1   -26.181796  -18.204771   13.835817 H    455 MOH     0.4215 ****
3038 HC1   -18.574051  -25.494861    1.687015 H    456 MOH     0.0372 ****
3039 C1    -17.650291  -25.306658    1.139008 C    456 MOH     0.1166 ****
3040 HC2   -17.059661  -26.221543    1.176484 H    456 MOH     0.0372 ****
3041 HC3   -17.127789  -24.483222    1.626204 H    456 MOH     0.0372 ****
3042 O1    -17.923377  -24.954340   -0.215102 O    456 MOH    -0.6497 ****
3043 HO1   -17.141645  -24.532211   -0.578555 H    456 MOH     0.4215 ****
3044 HC1   -14.466204  -16.239055   11.708133 H    457 MOH     0.0372 ****
3045 C1    -15.481186  -16.622401   11.604188 C    457 MOH     0.1166 ****
3046 HC2   -16.202296  -15.805088   11.625401 H    457 MOH     0.0372 ****
3047 HC3   -15.716167  -17.317239   12.410290 H    457 MOH     0.0372 ****
3048 O1    -15.608780  -17.334386   10.421905 O    457 MOH    -0.6497 ****
3049 HO1   -14.888247  -17.967579   10.390086 H    457 MOH     0.4215 ****
3050 HC1   -14.932703  -30.573061   11.780965 H    458 MOH     0.0372 ****
3051 C1    -15.430956  -31.348733   11.201137 C    458 MOH     0.1166 ****
3052 HC2   -14.704072  -32.094194   10.878696 H    458 MOH     0.0372 ****
3053 HC3   -15.893414  -30.874757   10.334931 H    458 MOH     0.0372 ****
3054 O1    -16.406101  -31.979477   11.998047 O    458 MOH    -0.6497 ****
3055 HO1   -15.934406  -32.348533   12.747580 H    458 MOH     0.4215 ****
3056 HC1   -15.608203  -18.874298    7.487412 H    459 MOH     0.0372 ****
3057 C1    -15.015264  -19.212736    6.638177 C    459 MOH     0.1166 ****
3058 HC2   -14.648069  -20.208454    6.886372 H    459 MOH     0.0372 ****
3059 HC3   -14.168291  -18.542801    6.486149 H    459 MOH     0.0372 ****
3060 O1    -15.819513  -19.263767    5.467915 O    459 MOH    -0.6497 ****
3061 HO1   -15.412481  -19.914107    4.890209 H    459 MOH     0.4215 ****
3062 HC1   -19.851727  -18.553415   13.149923 H    460 MOH     0.0372 ****
3063 C1    -19.670439  -19.591590   13.429231 C    460 MOH     0.1166 ****
3064 HC2   -20.329773  -20.228866   12.840211 H    460 MOH     0.0372 ****
3065 HC3   -19.895029  -19.746317   14.484941 H    460 MOH     0.0372 ****
3066 O1    -18.340224  -19.987183   13.188107 O    460 MOH    -0.6497 ****
3067 HO1   -18.160668  -19.878997   12.251191 H    460 MOH     0.4215 ****
3068 HC1   -24.130470  -12.868966   14.479284 H    461 MOH     0.0372 ****
3069 C1    -25.038065  -12.932653   15.078911 C    461 MOH     0.1166 ****
3070 HC2   -25.648901  -13.779360   14.766369 H    461 MOH     0.0372 ****
3071 HC3   -25.587125  -12.000622   14.946682 H    461 MOH     0.0372 ****
3072 O1    -24.666251  -13.115956   16.403322 O    461 MOH    -0.6497 ****
3073 HO1   -24.139130  -13.918572   16.401907 H    461 MOH     0.4215 ****
3074 HC1   -16.593740  -26.940468    9.455998 H    462 MOH     0.0372 ****
3075 C1    -15.666515  -27.117239    9.999763 C    462 MOH     0.1166 ****
3076 HC2   -15.732333  -28.041922   10.573226 H    462 MOH     0.0372 ****
3077 HC3   -15.443081  -26.280739   10.662322 H    462 MOH     0.0372 ****
3078 O1    -14.663080  -27.219302    9.069210 O    462 MOH    -0.6497 ****
3079 HO1   -13.853058  -26.878414    9.455998 H    462 MOH     0.4215 ****
3080 HC1   -18.690676  -26.796356    4.183102 H    463 MOH     0.0372 ****
3081 C1    -18.410661  -27.704709    4.716968 C    463 MOH     0.1166 ****
3082 HC2   -17.602371  -28.200322    4.179567 H    463 MOH     0.0372 ****
3083 HC3   -19.241468  -28.410570    4.740302 H    463 MOH     0.0372 ****
3084 O1    -17.973029  -27.443430    6.036429 O    463 MOH    -0.6497 ****
3085 HO1   -18.320594  -28.148066    6.587972 H    463 MOH     0.4215 ****
3086 HC1    -7.506824  -27.324221   17.586311 H    464 MOH     0.0372 ****
3087 C1     -8.338208  -26.640814   17.416606 C    464 MOH     0.1166 ****
3088 HC2    -9.260237  -27.100909   17.773695 H    464 MOH     0.0372 ****
3089 HC3    -8.408645  -26.452611   16.345339 H    464 MOH     0.0372 ****
3090 O1     -8.010273  -25.420151   18.068558 O    464 MOH    -0.6497 ****
3091 HO1    -7.397127  -25.617335   18.780615 H    464 MOH     0.4215 ****
3092 HC1    -7.747002  -24.497918   13.608836 H    465 MOH     0.0372 ****
3093 C1     -8.756787  -24.818802   13.352863 C    465 MOH     0.1166 ****
3094 HC2    -9.454226  -24.388100   14.071991 H    465 MOH     0.0372 ****
3095 HC3    -8.838194  -25.905150   13.387511 H    465 MOH     0.0372 ****
3096 O1     -9.111858  -24.359522   12.080778 O    465 MOH    -0.6497 ****
3097 HO1    -8.513145  -24.766954   11.451453 H    465 MOH     0.4215 ****
3098 HC1   -11.943761  -17.389499   14.883042 H    466 MOH     0.0372 ****
3099 C1    -12.436240  -16.953082   14.014008 C    466 MOH     0.1166 ****
3100 HC2   -13.378476  -16.465633   14.264324 H    466 MOH     0.0372 ****
3101 HC3   -12.688542  -17.787541   13.359227 H    466 MOH     0.0372 ****
3102 O1    -11.598505  -16.027991   13.313972 O    466 MOH    -0.6497 ****
3103 HO1   -12.139482  -15.328254   12.942034 H    466 MOH     0.4215 ****
3104 HC1    -5.602723  -28.789424   12.543933 H    467 MOH     0.0372 ****
3105 C1     -6.508585  -28.464867   12.032695 C    467 MOH     0.1166 ****
3106 HC2    -7.394240  -28.857602   12.531912 H    467 MOH     0.0372 ****
3107 HC3    -6.501080  -28.813103   10.999612 H    467 MOH     0.0372 ****
3108 O1     -6.601539  -27.072740   12.046837 O    467 MOH    -0.6497 ****
3109 HO1    -6.331339  -26.787375   12.922942 H    467 MOH     0.4215 ****
3110 HC1   -13.068439  -24.225617   14.528782 H    468 MOH     0.0372 ****
3111 C1    -12.405063  -25.047421   14.798189 C    468 MOH     0.1166 ****
3112 HC2   -11.388927  -24.661218   14.875971 H    468 MOH     0.0372 ****
3113 HC3   -12.418920  -25.830033   14.039464 H    468 MOH     0.0372 ****
3114 O1    -12.783228  -25.474448   16.085124 O    468 MOH    -0.6497 ****
3115 HO1   -12.729534  -24.705308   16.656466 H    468 MOH     0.4215 ****
3116 HC1    -9.288527  -18.026366   18.632122 H    469 MOH     0.0372 ****
3117 C1     -9.628009  -18.772236   17.912995 C    469 MOH     0.1166 ****
3118 HC2   -10.134345  -19.609553   18.394534 H    469 MOH     0.0372 ****
3119 HC3    -8.741199  -19.169053   17.418020 H    469 MOH     0.0372 ****
3120 O1    -10.469208  -18.151699   16.958401 O    469 MOH    -0.6497 ****
3121 HO1    -9.939778  -17.466658   16.542622 H    469 MOH     0.4215 ****
3122 HC1   -18.582134  -25.262567    9.651159 H    470 MOH     0.0372 ****
3123 C1    -19.212600  -25.576102   10.482717 C    470 MOH     0.1166 ****
3124 HC2   -20.188900  -25.888820   10.112193 H    470 MOH     0.0372 ****
3125 HC3   -19.382919  -24.748991   11.172853 H    470 MOH     0.0372 ****
3126 O1    -18.610424  -26.630199   11.178510 O    470 MOH    -0.6497 ****
3127 HO1   -19.261098  -26.984559   11.788036 H    470 MOH     0.4215 ****
3128 HC1   -15.919972  -20.530153   12.794956 H    471 MOH     0.0372 ****
3129 C1    -15.263525  -20.254586   13.620149 C    471 MOH     0.1166 ****
3130 HC2   -15.810275  -20.290511   14.563430 H    471 MOH     0.0372 ****
3131 HC3   -14.917115  -19.231924   13.469536 H    471 MOH     0.0372 ****
3132 O1    -14.144620  -21.126604   13.685203 O    471 MOH    -0.6497 ****
3133 HO1   -13.539557  -20.800005   14.355540 H    471 MOH     0.4215 ****
3134 HC1   -12.143524  -15.815294   20.562524 H    472 MOH     0.0372 ****
3135 C1    -12.455293  -16.234156   21.519946 C    472 MOH     0.1166 ****
3136 HC2   -12.982414  -15.487879   22.112502 H    472 MOH     0.0372 ****
3137 HC3   -11.562710  -16.567695   22.048155 H    472 MOH     0.0372 ****
3138 O1    -13.269934  -17.348266   21.292965 O    472 MOH    -0.6497 ****
3139 HO1   -13.955826  -17.106991   20.667176 H    472 MOH     0.4215 ****
3140 HC1   -19.463748  -10.421109   12.843039 H    473 MOH     0.0372 ****
3141 C1    -20.371342  -10.041438   12.373520 C    473 MOH     0.1166 ****
3142 HC2   -20.240861  -10.061442   11.290940 H    473 MOH     0.0372 ****
3143 HC3   -20.514525   -9.010611   12.695254 H    473 MOH     0.0372 ****
3144 O1    -21.511609  -10.834665   12.747579 O    473 MOH    -0.6497 ****
3145 HO1   -22.284681  -10.329661   12.485243 H    473 MOH     0.4215 ****
3146 HC1   -17.306190  -18.891036   19.354785 H    474 MOH     0.0372 ****
3147 C1    -16.724221  -18.648537   18.465245 C    474 MOH     0.1166 ****
3148 HC2   -16.760594  -19.470341   17.750360 H    474 MOH     0.0372 ****
3149 HC3   -15.697115  -18.505242   18.802535 H    474 MOH     0.0372 ****
3150 O1    -17.190143  -17.404196   17.933501 O    474 MOH    -0.6497 ****
3151 HO1   -16.774450  -16.726912   18.471609 H    474 MOH     0.4215 ****
3152 HC1   -20.089596  -23.562213    7.690352 H    475 MOH     0.0372 ****
3153 C1    -20.222963  -24.584875    7.337506 C    475 MOH     0.1166 ****
3154 HC2   -21.221779  -24.662442    6.908999 H    475 MOH     0.0372 ****
3155 HC3   -20.149640  -25.301759    8.154921 H    475 MOH     0.0372 ****
3156 O1    -19.302667  -24.862076    6.325636 O    475 MOH    -0.6497 ****
3157 HO1   -19.186620  -25.810028    6.233712 H    475 MOH     0.4215 ****
3158 HC1   -16.954006  -16.281513    7.000216 H    476 MOH     0.0372 ****
3159 C1    -17.801556  -16.946142    7.169921 C    476 MOH     0.1166 ****
3160 HC2   -18.667004  -16.302334    7.326192 H    476 MOH     0.0372 ****
3161 HC3   -17.568884  -17.547900    8.048148 H    476 MOH     0.0372 ****
3162 O1    -17.934924  -17.647920    5.954405 O    476 MOH    -0.6497 ****
3163 HO1   -17.089106  -18.053719    5.749344 H    476 MOH     0.4215 ****
3164 HC1    -6.002826  -29.895369   16.981028 H    477 MOH     0.0372 ****
3165 C1     -5.618888  -29.298510   16.153713 C    477 MOH     0.1166 ****
3166 HC2    -4.931264  -29.915781   15.575300 H    477 MOH     0.0372 ****
3167 HC3    -5.117748  -28.436698   16.595655 H    477 MOH     0.0372 ****
3168 O1     -6.684100  -28.858827   15.366703 O    477 MOH    -0.6497 ****
3169 HO1    -7.213530  -29.614902   15.105074 H    477 MOH     0.4215 ****
3170 HC1   -27.587644  -21.591599   13.099012 H    478 MOH     0.0372 ****
3171 C1    -27.753920  -20.521172   13.217806 C    478 MOH     0.1166 ****
3172 HC2   -27.400582  -20.200289   14.197856 H    478 MOH     0.0372 ****
3173 HC3   -28.820864  -20.308066   13.145681 H    478 MOH     0.0372 ****
3174 O1    -27.066874  -19.806737   12.208057 O    478 MOH    -0.6497 ****
3175 HO1   -27.157518  -20.336644   11.413269 H    478 MOH     0.4215 ****
3176 HC1   -20.924444  -15.275590   10.250078 H    479 MOH     0.0372 ****
3177 C1    -20.053222  -15.930828   10.230987 C    479 MOH     0.1166 ****
3178 HC2   -20.053800  -16.502376    9.303262 H    479 MOH     0.0372 ****
3179 HC3   -20.080935  -16.639955   11.059009 H    479 MOH     0.0372 ****
3180 O1    -18.874851  -15.146175   10.304526 O    479 MOH    -0.6497 ****
3181 HO1   -18.904295  -14.635456   11.116991 H    479 MOH     0.4215 ****
3182 HC1    -6.110791  -24.438722   15.716721 H    480 MOH     0.0372 ****
3183 C1     -5.470509  -25.314007   15.825616 C    480 MOH     0.1166 ****
3184 HC2    -5.620621  -25.714907   16.828293 H    480 MOH     0.0372 ****
3185 HC3    -4.431856  -25.001289   15.719550 H    480 MOH     0.0372 ****
3186 O1     -5.849829  -26.255836   14.822231 O    480 MOH    -0.6497 ****
3187 HO1    -5.920843  -27.129079   15.214675 H    480 MOH     0.4215 ****
3188 HC1    -7.975055  -22.225200   20.137553 H    481 MOH     0.0372 ****
3189 C1     -7.116535  -21.863492   19.571867 C    481 MOH     0.1166 ****
3190 HC2    -7.464677  -21.344200   18.679498 H    481 MOH     0.0372 ****
3191 HC3    -6.487223  -22.704075   19.278418 H    481 MOH     0.0372 ****
3192 O1     -6.367134  -20.973919   20.367362 O    481 MOH    -0.6497 ****
3193 HO1    -6.199703  -21.392374   21.215183 H    481 MOH     0.4215 ****
3194 HC1    -7.176002  -20.904109   10.205531 H    482 MOH     0.0372 ****
3195 C1     -7.622871  -20.490145    9.301848 C    482 MOH     0.1166 ****
3196 HC2    -8.650555  -20.171303    9.473675 H    482 MOH     0.0372 ****
3197 HC3    -7.592272  -21.262551    8.532516 H    482 MOH     0.0372 ****
3198 O1     -6.812271  -19.425842    8.913647 O    482 MOH    -0.6497 ****
3199 HO1    -6.630406  -18.879605    9.681565 H    482 MOH     0.4215 ****
3200 HC1   -13.950053  -23.156415    4.799699 H    483 MOH     0.0372 ****
3201 C1    -14.874390  -22.641205    4.538070 C    483 MOH     0.1166 ****
3202 HC2   -15.587418  -22.688154    5.361849 H    483 MOH     0.0372 ****
3203 HC3   -15.310290  -23.087421    3.644994 H    483 MOH     0.0372 ****
3204 O1    -14.636522  -21.291945    4.258763 O    483 MOH    -0.6497 ****
3205 HO1   -14.131918  -21.261734    3.442762 H    483 MOH     0.4215 ****
3206 HC1   -22.228101  -15.963080   14.851929 H    484 MOH     0.0372 ****
3207 C1    -22.598760  -16.359897   15.796624 C    484 MOH     0.1166 ****
3208 HC2   -21.744281  -16.482780   16.462011 H    484 MOH     0.0372 ****
3209 HC3   -23.070455  -17.335610   15.680658 H    484 MOH     0.0372 ****
3210 O1    -23.453816  -15.424600   16.358774 O    484 MOH    -0.6497 ****
3211 HO1   -23.269064  -15.422967   17.300640 H    484 MOH     0.4215 ****
3212 HC1   -22.230410  -14.549316   11.776722 H    485 MOH     0.0372 ****
3213 C1    -21.664030  -14.244354   12.657070 C    485 MOH     0.1166 ****
3214 HC2   -21.278360  -15.138010   13.148509 H    485 MOH     0.0372 ****
3215 HC3   -22.318168  -13.720572   13.353570 H    485 MOH     0.0372 ****
3216 O1    -20.569374  -13.429899   12.251898 O    485 MOH    -0.6497 ****
3217 HO1   -20.920403  -12.554615   12.075121 H    485 MOH     0.4215 ****
3218 HC1   -14.995634  -16.421951   16.984563 H    486 MOH     0.0372 ****
3219 C1    -14.049934  -16.079022   17.404585 C    486 MOH     0.1166 ****
3220 HC2   -14.163672  -15.104533   17.880468 H    486 MOH     0.0372 ****
3221 HC3   -13.320164  -15.965529   16.602726 H    486 MOH     0.0372 ****
3222 O1    -13.608261  -17.001255   18.376857 O    486 MOH    -0.6497 ****
3223 HO1   -12.776877  -17.389499   18.094721 H    486 MOH     0.4215 ****
3224 HC1   -15.077618  -24.487712   12.055322 H    487 MOH     0.0372 ****
3225 C1    -14.295886  -23.814511   11.703890 C    487 MOH     0.1166 ****
3226 HC2   -13.736433  -24.249295   10.875868 H    487 MOH     0.0372 ****
3227 HC3   -13.610571  -23.609570   12.525548 H    487 MOH     0.0372 ****
3228 O1    -14.869772  -22.615077   11.258413 O    487 MOH    -0.6497 ****
3229 HO1   -14.674627  -21.971678   11.944306 H    487 MOH     0.4215 ****
3230 HC1   -10.177762   -1.746813   12.326851 H    488 MOH     0.0372 ****
3231 C1    -11.214105   -1.608008   12.633735 C    488 MOH     0.1166 ****
3232 HC2   -11.777599   -1.243851   11.775308 H    488 MOH     0.0372 ****
3233 HC3   -11.283965   -0.858056   13.422159 H    488 MOH     0.0372 ****
3234 O1    -11.739494   -2.850716   13.050928 O    488 MOH    -0.6497 ****
3235 HO1   -12.502174   -2.698439   13.613078 H    488 MOH     0.4215 ****
3236 HC1   -15.679332  -12.287784   16.418171 H    489 MOH     0.0372 ****
3237 C1    -16.480117  -12.681743   17.043960 C    489 MOH     0.1166 ****
3238 HC2   -17.045920  -13.412099   16.464840 H    489 MOH     0.0372 ****
3239 HC3   -17.152730  -11.904847   17.405292 H    489 MOH     0.0372 ****
3240 O1    -15.983019  -13.422714   18.088357 O    489 MOH    -0.6497 ****
3241 HO1   -15.438577  -12.826671   18.607373 H    489 MOH     0.4215 ****
3242 HC1    -3.569988  -11.048750   20.924562 H    490 MOH     0.0372 ****
3243 C1     -3.508789  -10.268996   21.682581 C    490 MOH     0.1166 ****
3244 HC2    -3.148522  -10.714803   22.610305 H    490 MOH     0.0372 ****
3245 HC3    -4.501831   -9.843601   21.828245 H    490 MOH     0.0372 ****
3246 O1     -2.637567   -9.246334   21.254781 O    490 MOH    -0.6497 ****
3247 HO1    -1.750757   -9.606409   21.188313 H    490 MOH     0.4215 ****
3248 HC1     2.688489   -6.299598   15.143965 H    491 MOH     0.0372 ****
3249 C1      3.122079   -6.106496   16.124722 C    491 MOH     0.1166 ****
3250 HC2     3.407868   -5.055665   16.175633 H    491 MOH     0.0372 ****
3251 HC3     4.010044   -6.725809   16.251294 H    491 MOH     0.0372 ****
3252 O1      2.167719   -6.421256   17.132349 O    491 MOH    -0.6497 ****
3253 HO1     2.368637   -7.312870   17.425091 H    491 MOH     0.4215 ****
3254 HC1    -3.948730  -17.153287    7.511454 H    492 MOH     0.0372 ****
3255 C1     -4.135791  -18.139206    7.936425 C    492 MOH     0.1166 ****
3256 HC2    -4.527812  -18.044493    8.949002 H    492 MOH     0.0372 ****
3257 HC3    -3.178544  -18.655640    8.005015 H    492 MOH     0.0372 ****
3258 O1     -4.976990  -18.943047    7.087190 O    492 MOH    -0.6497 ****
3259 HO1    -5.692905  -19.289242    7.624591 H    492 MOH     0.4215 ****
3260 HC1    -1.318322  -16.681352   14.148358 H    493 MOH     0.0372 ****
3261 C1     -2.167027  -16.246567   14.676567 C    493 MOH     0.1166 ****
3262 HC2    -2.303281  -15.219415   14.338570 H    493 MOH     0.0372 ****
3263 HC3    -2.002482  -16.258815   15.754198 H    493 MOH     0.0372 ****
3264 O1     -3.332697  -16.944672   14.342813 O    493 MOH    -0.6497 ****
3265 HO1    -3.305561  -17.745247   14.872436 H    493 MOH     0.4215 ****
3266 HC1     6.758231   -7.910954   10.528679 H    494 MOH     0.0372 ****
3267 C1      6.563664   -7.169575   11.303668 C    494 MOH     0.1166 ****
3268 HC2     5.499608   -7.127525   11.536306 H    494 MOH     0.0372 ****
3269 HC3     6.865041   -6.181206   10.956478 H    494 MOH     0.0372 ****
3270 O1      7.233390   -7.499848   12.514942 O    494 MOH    -0.6497 ****
3271 HO1     7.015729   -8.394320   12.787178 H    494 MOH     0.4215 ****
3272 HC1    -2.423947   -9.605592    4.534534 H    495 MOH     0.0372 ****
3273 C1     -3.216072  -10.137948    5.060622 C    495 MOH     0.1166 ****
3274 HC2    -3.188937   -9.880343    6.119161 H    495 MOH     0.0372 ****
3275 HC3    -3.050372  -11.205517    4.918493 H    495 MOH     0.0372 ****
3276 O1     -4.444673   -9.722351    4.504836 O    495 MOH    -0.6497 ****
3277 HO1    -5.139226  -10.081202    5.062743 H    495 MOH     0.4215 ****
3278 HC1   -11.066304   -8.519652   21.380646 H    496 MOH     0.0372 ****
3279 C1    -12.086482   -8.812366   21.628841 C    496 MOH     0.1166 ****
3280 HC2   -12.247562   -8.754803   22.704350 H    496 MOH     0.0372 ****
3281 HC3   -12.294905   -9.834620   21.312057 H    496 MOH     0.0372 ****
3282 O1    -12.972714   -7.919935   21.027800 O    496 MOH    -0.6497 ****
3283 HO1   -12.521226   -7.543530   20.268367 H    496 MOH     0.4215 ****
3284 HC1     1.641176   -3.546779   12.057443 H    497 MOH     0.0372 ****
3285 C1      1.689673   -4.634353   12.006532 C    497 MOH     0.1166 ****
3286 HC2     1.311509   -4.989121   11.048402 H    497 MOH     0.0372 ****
3287 HC3     1.082878   -5.080976   12.794249 H    497 MOH     0.0372 ****
3288 O1      3.026239   -5.068729   12.080071 O    497 MOH    -0.6497 ****
3289 HO1     2.993907   -6.028113   12.101284 H    497 MOH     0.4215 ****
3290 HC1   -16.467415   -5.732949   17.584897 H    498 MOH     0.0372 ****
3291 C1    -15.427030   -5.705596   17.258921 C    498 MOH     0.1166 ****
3292 HC2   -14.842752   -6.345321   17.921480 H    498 MOH     0.0372 ****
3293 HC3   -15.085816   -4.671912   17.312661 H    498 MOH     0.0372 ****
3294 O1    -15.360058   -6.187738   15.935924 O    498 MOH    -0.6497 ****
3295 HO1   -15.954728   -6.940547   15.892083 H    498 MOH     0.4215 ****
3296 HC1   -13.587015  -10.415149   13.424988 H    499 MOH     0.0372 ****
3297 C1    -12.672492  -10.108962   12.917285 C    499 MOH     0.1166 ****
3298 HC2   -12.077244   -9.454540   13.554388 H    499 MOH     0.0372 ****
3299 HC3   -12.947888   -9.562726   12.015017 H    499 MOH     0.0372 ****
3300 O1    -11.970434  -11.248383   12.519184 O    499 MOH    -0.6497 ****
3301 HO1   -11.035704  -11.049566   12.608987 H    499 MOH     0.4215 ****
3302 HC1    -0.320660  -14.595611    9.991277 H    500 MOH     0.0372 ****
3303 C1     -0.273318  -13.872195   10.805864 C    500 MOH     0.1166 ****
3304 HC2    -1.066597  -13.144697   10.634745 H    500 MOH     0.0372 ****
3305 HC3     0.687393  -13.358619   10.759195 H    500 MOH     0.0372 ****
3306 O1     -0.458647  -14.513961   12.099870 O    500 MOH    -0.6497 ****
3307 HO1    -0.650327  -13.838311   12.755358 H    500 MOH     0.4215 ****
3308 HC1   -19.244470   -6.815215   16.284528 H    501 MOH     0.0372 ****
3309 C1    -19.679215   -7.700706   16.747683 C    501 MOH     0.1166 ****
3310 HC2   -20.091443   -8.375540   15.997442 H    501 MOH     0.0372 ****
3311 HC3   -20.501362   -7.414524   17.404585 H    501 MOH     0.0372 ****
3312 O1    -18.773930   -8.403301   17.543178 O    501 MOH    -0.6497 ****
3313 HO1   -19.300473   -9.121002   17.903802 H    501 MOH     0.4215 ****
3314 HC1     6.437224   -5.881143   14.310286 H    502 MOH     0.0372 ****
3315 C1      6.519786   -4.941356   14.856172 C    502 MOH     0.1166 ****
3316 HC2     5.693020   -4.285709   14.583229 H    502 MOH     0.0372 ****
3317 HC3     7.477032   -4.479218   14.611513 H    502 MOH     0.0372 ****
3318 O1      6.478794   -5.299389   16.197554 O    502 MOH    -0.6497 ****
3319 HO1     6.702806   -4.556377   16.761825 H    502 MOH     0.4215 ****
3320 HC1    -5.580899  -11.910970   23.003456 H    503 MOH     0.0372 ****
3321 C1     -5.281254  -12.958127   22.988607 C    503 MOH     0.1166 ****
3322 HC2    -4.647323  -13.146738   22.121694 H    503 MOH     0.0372 ****
3323 HC3    -6.149012  -13.612141   22.909411 H    503 MOH     0.0372 ****
3324 O1     -4.576309  -13.269212   24.182203 O    503 MOH    -0.6497 ****
3325 HO1    -4.142142  -14.117552   24.063410 H    503 MOH     0.4215 ****
3326 HC1     1.224906  -17.258615   10.595854 H    504 MOH     0.0372 ****
3327 C1      0.544788  -17.827305   11.230129 C    504 MOH     0.1166 ****
3328 HC2     0.899281  -17.790154   12.260383 H    504 MOH     0.0372 ****
3329 HC3     0.489939  -18.863847   10.898496 H    504 MOH     0.0372 ****
3330 O1     -0.687855  -17.204318   11.148104 O    504 MOH    -0.6497 ****
3331 HO1    -0.585664  -16.311479   11.483980 H    504 MOH     0.4215 ****
3332 HC1    -8.714756    2.997032   16.787281 H    505 MOH     0.0372 ****
3333 C1     -9.169131    3.295054   15.842586 C    505 MOH     0.1166 ****
3334 HC2   -10.249930    3.160332   15.890669 H    505 MOH     0.0372 ****
3335 HC3    -8.746510    2.670434   15.054869 H    505 MOH     0.0372 ****
3336 O1     -8.887384    4.652479   15.583078 O    505 MOH    -0.6497 ****
3337 HO1    -9.157006    4.846805   14.682224 H    505 MOH     0.4215 ****
3338 HC1    -7.673794    5.910701   19.910571 H    506 MOH     0.0372 ****
3339 C1     -8.015585    5.241173   19.121440 C    506 MOH     0.1166 ****
3340 HC2    -8.513838    4.365073   19.537219 H    506 MOH     0.0372 ****
3341 HC3    -7.143209    4.923148   18.550805 H    506 MOH     0.0372 ****
3342 O1     -8.796740    5.971121   18.199373 O    506 MOH    -0.6497 ****
3343 HO1    -8.769604    5.484081   17.372765 H    506 MOH     0.4215 ****
3344 HC1    -4.907131  -10.795228   15.579542 H    507 MOH     0.0372 ****
3345 C1     -5.047427  -10.949546   14.510397 C    507 MOH     0.1166 ****
3346 HC2    -5.243726   -9.995061   14.021079 H    507 MOH     0.0372 ****
3347 HC3    -5.881698  -11.628463   14.334327 H    507 MOH     0.0372 ****
3348 O1     -3.871942  -11.503947   13.958854 O    507 MOH    -0.6497 ****
3349 HO1    -3.225310  -11.604784   14.661011 H    507 MOH     0.4215 ****
3350 HC1    -7.450936  -11.001393    8.210783 H    508 MOH     0.0372 ****
3351 C1     -7.612017  -12.014257    8.579185 C    508 MOH     0.1166 ****
3352 HC2    -8.363150  -11.969350    9.366902 H    508 MOH     0.0372 ****
3353 HC3    -6.687102  -12.414749    8.994257 H    508 MOH     0.0372 ****
3354 O1     -8.063505  -12.860964    7.522768 O    508 MOH    -0.6497 ****
3355 HO1    -7.658782  -13.719102    7.672674 H    508 MOH     0.4215 ****
3356 HC1     1.554573  -16.884251   15.824908 H    509 MOH     0.0372 ****
3357 C1      1.388296  -16.797294   16.899004 C    509 MOH     0.1166 ****
3358 HC2     1.460465  -15.741156   17.158512 H    509 MOH     0.0372 ****
3359 HC3     2.175225  -17.351287   17.411656 H    509 MOH     0.0372 ****
3360 O1      0.062700  -17.316178   17.133056 O    509 MOH    -0.6497 ****
3361 HO1    -0.248492  -16.967534   17.971685 H    509 MOH     0.4215 ****
3362 HC1     0.420657    0.512842   25.005983 H    510 MOH     0.0372 ****
3363 C1     -0.290638   -0.313045   24.995376 C    510 MOH     0.1166 ****
3364 HC2     0.071360   -1.044217   24.272006 H    510 MOH     0.0372 ****
3365 HC3    -1.279639    0.059278   24.725261 H    510 MOH     0.0372 ****
3366 O1     -0.354147   -0.886633   26.280189 O    510 MOH    -0.6497 ****
3367 HO1    -0.630120   -0.202818   26.894665 H    510 MOH     0.4215 ****
3368 HC1    -3.649662    2.042548    7.997943 H    511 MOH     0.0372 ****
3369 C1     -4.230476    2.423852    8.837986 C    511 MOH     0.1166 ****
3370 HC2    -3.933141    3.431000    9.130021 H    511 MOH     0.0372 ****
3371 HC3    -4.022630    1.768613    9.684393 H    511 MOH     0.0372 ****
3372 O1     -5.609766    2.380169    8.553022 O    511 MOH    -0.6497 ****
3373 HO1    -6.015066    1.705335    9.102444 H    511 MOH     0.4215 ****
3374 HC1   -15.071960   -8.314303   19.023859 H    512 MOH     0.0372 ****
3375 C1    -15.463403   -9.083443   18.359179 C    512 MOH     0.1166 ****
3376 HC2   -14.963995   -9.049558   17.391150 H    512 MOH     0.0372 ****
3377 HC3   -16.534965   -8.920960   18.234728 H    512 MOH     0.0372 ****
3378 O1    -15.322530  -10.350237   18.943956 O    512 MOH    -0.6497 ****
3379 HO1   -15.768822  -10.350645   19.793192 H    512 MOH     0.4215 ****
3380 HC1     1.148119  -10.746238   14.643333 H    513 MOH     0.0372 ****
3381 C1      1.131375  -11.753387   14.225433 C    513 MOH     0.1166 ****
3382 HC2     1.633093  -12.411891   14.933247 H    513 MOH     0.0372 ****
3383 HC3     1.682745  -11.781964   13.284981 H    513 MOH     0.0372 ****
3384 O1     -0.211541  -12.188987   14.076233 O    513 MOH    -0.6497 ****
3385 HO1    -0.703444  -11.928117   14.859001 H    513 MOH     0.4215 ****
3386 HC1    -4.717183   -6.955244   13.775006 H    514 MOH     0.0372 ****
3387 C1     -5.780662   -6.754386   13.643484 C    514 MOH     0.1166 ****
3388 HC2    -6.362631   -7.675394   13.670354 H    514 MOH     0.0372 ****
3389 HC3    -5.945784   -6.283676   12.674041 H    514 MOH     0.0372 ****
3390 O1     -6.230995   -5.863997   14.622827 O    514 MOH    -0.6497 ****
3391 HO1    -6.120721   -4.969525   14.292608 H    514 MOH     0.4215 ****
3392 HC1    -5.236798  -15.283509   16.181997 H    515 MOH     0.0372 ****
3393 C1     -5.422705  -14.697673   15.281850 C    515 MOH     0.1166 ****
3394 HC2    -5.404807  -15.321477   14.388067 H    515 MOH     0.0372 ****
3395 HC3    -4.675036  -13.912203   15.172956 H    515 MOH     0.0372 ****
3396 O1     -6.665163  -14.109387   15.411251 O    515 MOH    -0.6497 ****
3397 HO1    -6.963653  -13.998752   14.505447 H    515 MOH     0.4215 ****
3398 HC1    -4.052075  -11.708479   17.601161 H    516 MOH     0.0372 ****
3399 C1     -3.298056  -12.462106   17.373472 C    516 MOH     0.1166 ****
3400 HC2    -3.784185  -13.351679   16.973957 H    516 MOH     0.0372 ****
3401 HC3    -2.809040  -12.751554   18.303318 H    516 MOH     0.0372 ****
3402 O1     -2.363903  -11.919952   16.428778 O    516 MOH    -0.6497 ****
3403 HO1    -2.147397  -11.022214   16.688286 H    516 MOH     0.4215 ****
3404 HC1    -8.115466  -18.338023   14.866779 H    517 MOH     0.0372 ****
3405 C1     -8.522498  -17.337407   14.721822 C    517 MOH     0.1166 ****
3406 HC2    -9.568080  -17.383130   14.416352 H    517 MOH     0.0372 ****
3407 HC3    -7.965933  -16.879760   13.905113 H    517 MOH     0.0372 ****
3408 O1     -8.367769  -16.513562   15.878648 O    517 MOH    -0.6497 ****
3409 HO1    -8.084867  -15.633378   15.618433 H    517 MOH     0.4215 ****
3410 HC1    -8.709560  -13.932616   17.089215 H    518 MOH     0.0372 ****
3411 C1     -8.621225  -12.946696   17.545299 C    518 MOH     0.1166 ****
3412 HC2    -9.222247  -12.914853   18.453224 H    518 MOH     0.0372 ****
3413 HC3    -8.973409  -12.211441   16.821929 H    518 MOH     0.0372 ****
3414 O1     -7.281195  -12.742980   17.852891 O    518 MOH    -0.6497 ****
3415 HO1    -6.796221  -13.209608   17.169118 H    518 MOH     0.4215 ****
3416 HC1    -4.413497    0.167464   21.887642 H    519 MOH     0.0372 ****
3417 C1     -4.456221    1.041523   21.237811 C    519 MOH     0.1166 ****
3418 HC2    -3.655436    1.741669   21.476106 H    519 MOH     0.0372 ****
3419 HC3    -5.395569    1.557549   21.432972 H    519 MOH     0.0372 ****
3420 O1     -4.455643    0.687164   19.846225 O    519 MOH    -0.6497 ****
3421 HO1    -4.346524    1.479574   19.315187 H    519 MOH     0.4215 ****
3422 HC1    -6.745992  -18.769950   17.903095 H    520 MOH     0.0372 ****
3423 C1     -5.669811  -18.761785   17.733390 C    520 MOH     0.1166 ****
3424 HC2    -5.249500  -17.901606   18.253113 H    520 MOH     0.0372 ****
3425 HC3    -5.466006  -18.701364   16.664244 H    520 MOH     0.0372 ****
3426 O1     -5.076295  -19.906513   18.234021 O    520 MOH    -0.6497 ****
3427 HO1    -5.538175  -20.167792   19.033052 H    520 MOH     0.4215 ****
3428 HC1   -10.099819   -4.101997   10.501808 H    521 MOH     0.0372 ****
3429 C1    -10.682366   -4.974832   10.797379 C    521 MOH     0.1166 ****
3430 HC2   -10.346348   -5.889716   10.310182 H    521 MOH     0.0372 ****
3431 HC3   -11.702544   -4.794794   10.460089 H    521 MOH     0.0372 ****
3432 O1    -10.689294   -5.121801   12.200279 O    521 MOH    -0.6497 ****
3433 HO1   -10.875778   -4.259989   12.581409 H    521 MOH     0.4215 ****
3434 HC1   -10.930626   -7.116502   14.772733 H    522 MOH     0.0372 ****
3435 C1     -9.898901   -7.400235   14.566965 C    522 MOH     0.1166 ****
3436 HC2    -9.628124   -8.226121   15.223868 H    522 MOH     0.0372 ****
3437 HC3    -9.250537   -6.549446   14.777683 H    522 MOH     0.0372 ****
3438 O1     -9.760915   -7.719485   13.205078 O    522 MOH    -0.6497 ****
3439 HO1   -10.057673   -6.926667   12.752529 H    522 MOH     0.4215 ****
3440 HC1     0.694899  -11.678677   22.415851 H    523 MOH     0.0372 ****
3441 C1      0.769954  -10.636827   22.106138 C    523 MOH     0.1166 ****
3442 HC2     1.808607  -10.412291   21.862893 H    523 MOH     0.0372 ****
3443 HC3     0.407955  -10.035478   22.941231 H    523 MOH     0.0372 ****
3444 O1     -0.118011  -10.479244   21.029921 O    523 MOH    -0.6497 ****
3445 HO1     0.249184  -10.999760   20.312208 H    523 MOH     0.4215 ****
3446 HC1    -9.580204  -15.591329   22.964566 H    524 MOH     0.0372 ****
3447 C1     -8.587739  -15.570508   22.514139 C    524 MOH     0.1166 ****
3448 HC2    -8.064660  -14.659298   22.804052 H    524 MOH     0.0372 ****
3449 HC3    -8.647783  -15.626030   21.428022 H    524 MOH     0.0372 ****
3450 O1     -7.852772  -16.635220   22.962444 O    524 MOH    -0.6497 ****
3451 HO1    -8.299641  -17.431304   22.666874 H    524 MOH     0.4215 ****
3452 HC1   -11.640190   -3.361843   15.969865 H    525 MOH     0.0372 ****
3453 C1    -11.879790   -3.994628   16.824050 C    525 MOH     0.1166 ****
3454 HC2   -12.925372   -3.870112   17.104772 H    525 MOH     0.0372 ****
3455 HC3   -11.247592   -3.687217   17.657729 H    525 MOH     0.0372 ****
3456 O1    -11.577836   -5.344705   16.507973 O    525 MOH    -0.6497 ****
3457 HO1   -12.040294   -5.617823   15.712478 H    525 MOH     0.4215 ****
3458 HC1     0.033255   -8.882585   11.097192 H    526 MOH     0.0372 ****
3459 C1     -0.006005   -9.952195   10.892132 C    526 MOH     0.1166 ****
3460 HC2    -0.784273  -10.380448   11.523578 H    526 MOH     0.0372 ****
3461 HC3     0.962789  -10.388613   11.136083 H    526 MOH     0.0372 ****
3462 O1     -0.294680  -10.244093    9.523880 O    526 MOH    -0.6497 ****
3463 HO1     0.134869  -11.058548    9.251644 H    526 MOH     0.4215 ****
3464 HC1     4.194796  -10.202451    8.850714 H    527 MOH     0.0372 ****
3465 C1      3.672294   -9.273278    9.078403 C    527 MOH     0.1166 ****
3466 HC2     2.639992   -9.486384    9.357003 H    527 MOH     0.0372 ****
3467 HC3     3.712709   -8.627021    8.202297 H    527 MOH     0.0372 ****
3468 O1      4.359918   -8.709896   10.144720 O    527 MOH    -0.6497 ****
3469 HO1     4.822376   -9.425147   10.587369 H    527 MOH     0.4215 ****
3470 HC1    -2.404895  -14.988346   18.490701 H    528 MOH     0.0372 ****
3471 C1     -2.153748  -15.508863   19.414890 C    528 MOH     0.1166 ****
3472 HC2    -2.820587  -16.362510   19.535805 H    528 MOH     0.0372 ****
3473 HC3    -2.276723  -14.838927   20.265539 H    528 MOH     0.0372 ****
3474 O1     -0.813718  -15.939564   19.318016 O    528 MOH    -0.6497 ****
3475 HO1    -0.623769  -16.495190   20.076742 H    528 MOH     0.4215 ****
3476 HC1   -10.878665   -8.760110   17.711469 H    529 MOH     0.0372 ****
3477 C1    -11.888451   -8.360843   17.803393 C    529 MOH     0.1166 ****
3478 HC2   -12.501019   -9.102222   18.316753 H    529 MOH     0.0372 ****
3479 HC3   -12.289709   -8.168967   16.807787 H    529 MOH     0.0372 ****
3480 O1    -11.820323   -7.172024   18.565654 O    529 MOH    -0.6497 ****
3481 HO1   -11.486037   -6.478819   17.991483 H    529 MOH     0.4215 ****
3482 HC1    -4.261653  -12.767884    6.761921 H    530 MOH     0.0372 ****
3483 C1     -3.956235  -13.748088    6.394932 C    530 MOH     0.1166 ****
3484 HC2    -3.007071  -13.668479    5.865309 H    530 MOH     0.0372 ****
3485 HC3    -4.722956  -14.140414    5.728131 H    530 MOH     0.0372 ****
3486 O1     -3.802660  -14.668688    7.469028 O    530 MOH    -0.6497 ****
3487 HO1    -2.953378  -15.102656    7.360840 H    530 MOH     0.4215 ****
3488 HC1     1.579399  -15.416190   13.434888 H    531 MOH     0.0372 ****
3489 C1      2.450621  -14.912820   13.015573 C    531 MOH     0.1166 ****
3490 HC2     2.152708  -13.963643   12.572217 H    531 MOH     0.0372 ****
3491 HC3     2.889407  -15.524376   12.226442 H    531 MOH     0.0372 ****
3492 O1      3.419415  -14.637661   14.001280 O    531 MOH    -0.6497 ****
3493 HO1     3.849541  -15.475794   14.184421 H    531 MOH     0.4215 ****
3494 HC1   -15.134891   -1.523909   16.135328 H    532 MOH     0.0372 ****
3495 C1    -14.272330   -1.060956   15.655910 C    532 MOH     0.1166 ****
3496 HC2   -13.485401   -0.946238   16.401907 H    532 MOH     0.0372 ****
3497 HC3   -14.589295   -0.068912   15.333469 H    532 MOH     0.0372 ****
3498 O1    -13.889547   -1.848467   14.496962 O    532 MOH    -0.6497 ****
3499 HO1   -14.583522   -1.802334   13.835817 H    532 MOH     0.4215 ****
3500 HC1    -8.448598   -6.086492   22.396052 H    533 MOH     0.0372 ****
3501 C1     -7.840648   -5.215698   22.147857 C    533 MOH     0.1166 ****
3502 HC2    -6.791025   -5.485142   22.033306 H    533 MOH     0.0372 ****
3503 HC3    -7.897228   -4.493507   22.963151 H    533 MOH     0.0372 ****
3504 O1     -8.235555   -4.653540   20.937997 O    533 MOH    -0.6497 ****
3505 HO1    -7.953808   -5.252032   20.242204 H    533 MOH     0.4215 ****
3506 HC1    -6.975777   -9.092424    1.687015 H    534 MOH     0.0372 ****
3507 C1     -6.052016   -8.904222    1.139008 C    534 MOH     0.1166 ****
3508 HC2    -5.461387   -9.819106    1.176484 H    534 MOH     0.0372 ****
3509 HC3    -5.529514   -8.080785    1.626204 H    534 MOH     0.0372 ****
3510 O1     -6.325103   -8.551904   -0.215102 O    534 MOH    -0.6497 ****
3511 HO1    -5.543371   -8.129775   -0.578555 H    534 MOH     0.4215 ****
3512 HC1    -9.389101  -13.830554   12.597673 H    535 MOH     0.0372 ****
3513 C1     -8.532313  -14.088567   11.974005 C    535 MOH     0.1166 ****
3514 HC2    -8.346407  -13.295340   11.250635 H    535 MOH     0.0372 ****
3515 HC3    -8.778265  -14.992428   11.416805 H    535 MOH     0.0372 ****
3516 O1     -7.368953  -14.279219   12.775157 O    535 MOH    -0.6497 ****
3517 HO1    -6.672668  -14.627046   12.213714 H    535 MOH     0.4215 ****
3518 HC1    -3.334429  -14.170625   11.780965 H    536 MOH     0.0372 ****
3519 C1     -3.832682  -14.946296   11.201137 C    536 MOH     0.1166 ****
3520 HC2    -3.105798  -15.691758   10.878696 H    536 MOH     0.0372 ****
3521 HC3    -4.295140  -14.472320   10.334931 H    536 MOH     0.0372 ****
3522 O1     -4.807827  -15.577040   11.998047 O    536 MOH    -0.6497 ****
3523 HO1    -4.336132  -15.946096   12.747580 H    536 MOH     0.4215 ****
3524 HC1     0.006120   -8.118752   18.967998 H    537 MOH     0.0372 ****
3525 C1     -0.616264   -7.224280   18.958806 C    537 MOH     0.1166 ****
3526 HC2    -0.172282   -6.437177   19.568332 H    537 MOH     0.0372 ****
3527 HC3    -1.587944   -7.502297   19.368220 H    537 MOH     0.0372 ****
3528 O1     -0.795820   -6.771533   17.637223 O    537 MOH    -0.6497 ****
3529 HO1     0.061545   -6.495965   17.304176 H    537 MOH     0.4215 ****
3530 HC1    -4.364999   -7.939123   16.808494 H    538 MOH     0.0372 ****
3531 C1     -3.911202   -7.059756   17.265285 C    538 MOH     0.1166 ****
3532 HC2    -3.074044   -6.742955   16.643031 H    538 MOH     0.0372 ****
3533 HC3    -3.607516   -7.308787   18.282104 H    538 MOH     0.0372 ****
3534 O1     -4.861520   -6.061997   17.229930 O    538 MOH    -0.6497 ****
3535 HO1    -5.189455   -6.006475   16.329075 H    538 MOH     0.4215 ****
3536 HC1   -12.532196    3.533471   14.479284 H    539 MOH     0.0372 ****
3537 C1    -13.439791    3.469784   15.078911 C    539 MOH     0.1166 ****
3538 HC2   -14.050627    2.623077   14.766369 H    539 MOH     0.0372 ****
3539 HC3   -13.988851    4.401815   14.946682 H    539 MOH     0.0372 ****
3540 O1    -13.067977    3.286480   16.403322 O    539 MOH    -0.6497 ****
3541 HO1   -12.540856    2.483864   16.401907 H    539 MOH     0.4215 ****
3542 HC1     2.997949   -4.620064   22.185334 H    540 MOH     0.0372 ****
3543 C1      2.745069   -3.755394   22.799103 C    540 MOH     0.1166 ****
3544 HC2     3.552782   -3.572091   23.506916 H    540 MOH     0.0372 ****
3545 HC3     1.827082   -3.988096   23.337918 H    540 MOH     0.0372 ****
3546 O1      2.552812   -2.647000   21.942796 O    540 MOH    -0.6497 ****
3547 HO1     1.867497   -2.918077   21.327613 H    540 MOH     0.4215 ****
3548 HC1    -0.742704  -11.879535   18.651214 H    541 MOH     0.0372 ****
3549 C1      0.080021  -12.570291   18.465952 C    541 MOH     0.1166 ****
3550 HC2     0.355417  -12.449042   17.418727 H    541 MOH     0.0372 ****
3551 HC3    -0.228284  -13.610100   18.572725 H    541 MOH     0.0372 ****
3552 O1      1.170058  -12.259614   19.350543 O    541 MOH    -0.6497 ****
3553 HO1     1.780894  -13.000177   19.363271 H    541 MOH     0.4215 ****
3554 HC1    -4.995466  -10.538031    9.455998 H    542 MOH     0.0372 ****
3555 C1     -4.068241  -10.714803    9.999763 C    542 MOH     0.1166 ****
3556 HC2    -4.134059  -11.639485   10.573226 H    542 MOH     0.0372 ****
3557 HC3    -3.844806   -9.878302   10.662322 H    542 MOH     0.0372 ****
3558 O1     -3.064806  -10.816865    9.069210 O    542 MOH    -0.6497 ****
3559 HO1    -2.254784  -10.475978    9.455998 H    542 MOH     0.4215 ****
3560 HC1    -7.092402  -10.393920    4.183102 H    543 MOH     0.0372 ****
3561 C1     -6.812387  -11.302272    4.716968 C    543 MOH     0.1166 ****
3562 HC2    -6.004096  -11.797886    4.179567 H    543 MOH     0.0372 ****
3563 HC3    -7.643194  -12.008134    4.740302 H    543 MOH     0.0372 ****
3564 O1     -6.374755  -11.040993    6.036429 O    543 MOH    -0.6497 ****
3565 HO1    -6.722320  -11.745630    6.587972 H    543 MOH     0.4215 ****
3566 HC1     4.091450  -10.921785   17.586311 H    544 MOH     0.0372 ****
3567 C1      3.260066  -10.238377   17.416606 C    544 MOH     0.1166 ****
3568 HC2     2.338037  -10.698473   17.773695 H    544 MOH     0.0372 ****
3569 HC3     3.189629  -10.050175   16.345339 H    544 MOH     0.0372 ****
3570 O1      3.588001   -9.017715   18.068558 O    544 MOH    -0.6497 ****
3571 HO1     4.201147   -9.214899   18.780615 H    544 MOH     0.4215 ****
3572 HC1    -3.401979   -8.692341   26.069471 H    545 MOH     0.0372 ****
3573 C1     -4.293408   -8.065680   26.037652 C    545 MOH     0.1166 ****
3574 HC2    -5.181950   -8.696423   25.997347 H    545 MOH     0.0372 ****
3575 HC3    -4.284170   -7.447592   25.139626 H    545 MOH     0.0372 ****
3576 O1     -4.283015   -7.218156   27.159123 O    545 MOH    -0.6497 ****
3577 HO1    -3.527264   -6.638035   27.042450 H    545 MOH     0.4215 ****
3578 HC1     3.851273   -8.095482   13.608836 H    546 MOH     0.0372 ****
3579 C1      2.841487   -8.416365   13.352863 C    546 MOH     0.1166 ****
3580 HC2     2.144048   -7.985663   14.071991 H    546 MOH     0.0372 ****
3581 HC3     2.760081   -9.502714   13.387511 H    546 MOH     0.0372 ****
3582 O1      2.486417   -7.957086   12.080778 O    546 MOH    -0.6497 ****
3583 HO1     3.085129   -8.364517   11.451453 H    546 MOH     0.4215 ****
3584 HC1    -1.744984   -7.430445   24.655965 H    547 MOH     0.0372 ****
3585 C1     -1.520394   -6.364509   24.706170 C    547 MOH     0.1166 ****
3586 HC2    -1.879506   -5.816640   23.835014 H    547 MOH     0.0372 ****
3587 HC3    -0.434399   -6.317969   24.634045 H    547 MOH     0.0372 ****
3588 O1     -1.881238   -5.766425   25.972598 O    547 MOH    -0.6497 ****
3589 HO1    -1.953407   -4.817656   25.846733 H    547 MOH     0.4215 ****
3590 HC1    -2.658352  -20.881410   16.023605 H    548 MOH     0.0372 ****
3591 C1     -2.076960  -20.124109   16.550400 C    548 MOH     0.1166 ****
3592 HC2    -1.023296  -20.368242   16.413221 H    548 MOH     0.0372 ****
3593 HC3    -2.306745  -20.113495   17.615303 H    548 MOH     0.0372 ****
3594 O1     -2.205132  -18.863847   15.998150 O    548 MOH    -0.6497 ****
3595 HO1    -1.406656  -18.387421   16.239273 H    548 MOH     0.4215 ****
3596 HC1    -7.502898   -9.524351   21.105582 H    549 MOH     0.0372 ****
3597 C1     -7.157642  -10.367384   20.508077 C    549 MOH     0.1166 ****
3598 HC2    -6.417479  -10.899331   21.106996 H    549 MOH     0.0372 ****
3599 HC3    -6.715969   -9.981589   19.589545 H    549 MOH     0.0372 ****
3600 O1     -8.210152  -11.285126   20.174322 O    549 MOH    -0.6497 ****
3601 HO1    -7.931292  -11.798294   19.412768 H    549 MOH     0.4215 ****
3602 HC1    -2.437804  -21.203926   11.360943 H    550 MOH     0.0372 ****
3603 C1     -2.470713  -20.118802   11.261948 C    550 MOH     0.1166 ****
3604 HC2    -2.025576  -19.649725   12.139468 H    550 MOH     0.0372 ****
3605 HC3    -3.508211  -19.793020   11.186995 H    550 MOH     0.0372 ****
3606 O1     -1.784821  -19.741581   10.096636 O    550 MOH    -0.6497 ****
3607 HO1    -1.683207  -18.788321   10.136942 H    550 MOH     0.4215 ****
3608 HC1     5.995551  -12.386988   12.543933 H    551 MOH     0.0372 ****
3609 C1      5.089689  -12.062431   12.032695 C    551 MOH     0.1166 ****
3610 HC2     4.204034  -12.455165   12.531912 H    551 MOH     0.0372 ****
3611 HC3     5.097194  -12.410666   10.999612 H    551 MOH     0.0372 ****
3612 O1      4.996736  -10.670304   12.046837 O    551 MOH    -0.6497 ****
3613 HO1     5.266935  -10.384938   12.922942 H    551 MOH     0.4215 ****
3614 HC1    -1.470165   -7.823180   14.528782 H    552 MOH     0.0372 ****
3615 C1     -0.806789   -8.644984   14.798189 C    552 MOH     0.1166 ****
3616 HC2     0.209347   -8.258781   14.875971 H    552 MOH     0.0372 ****
3617 HC3    -0.820646   -9.427596   14.039464 H    552 MOH     0.0372 ****
3618 O1     -1.184954   -9.072012   16.085124 O    552 MOH    -0.6497 ****
3619 HO1    -1.131260   -8.302872   16.656466 H    552 MOH     0.4215 ****
3620 HC1     2.309747   -1.623930   18.632122 H    553 MOH     0.0372 ****
3621 C1      1.970265   -2.369800   17.912995 C    553 MOH     0.1166 ****
3622 HC2     1.463929   -3.207117   18.394534 H    553 MOH     0.0372 ****
3623 HC3     2.857075   -2.766617   17.418020 H    553 MOH     0.0372 ****
3624 O1      1.129066   -1.749262   16.958401 O    553 MOH    -0.6497 ****
3625 HO1     1.658496   -1.064222   16.542622 H    553 MOH     0.4215 ****
3626 HC1    -6.983860   -8.860131    9.651159 H    554 MOH     0.0372 ****
3627 C1     -7.614326   -9.173666   10.482717 C    554 MOH     0.1166 ****
3628 HC2    -8.590626   -9.486384   10.112193 H    554 MOH     0.0372 ****
3629 HC3    -7.784645   -8.346555   11.172853 H    554 MOH     0.0372 ****
3630 O1     -7.012150  -10.227763   11.178510 O    554 MOH    -0.6497 ****
3631 HO1    -7.662824  -10.582122   11.788036 H    554 MOH     0.4215 ****
3632 HC1    -0.545250    0.587143   20.562524 H    555 MOH     0.0372 ****
3633 C1     -0.857019    0.168280   21.519946 C    555 MOH     0.1166 ****
3634 HC2    -1.384140    0.914558   22.112502 H    555 MOH     0.0372 ****
3635 HC3     0.035565   -0.165259   22.048155 H    555 MOH     0.0372 ****
3636 O1     -1.671660   -0.945829   21.292965 O    555 MOH    -0.6497 ****
3637 HO1    -2.357552   -0.704555   20.667176 H    555 MOH     0.4215 ****
3638 HC1    -7.865474    5.981327   12.843039 H    556 MOH     0.0372 ****
3639 C1     -8.773068    6.360998   12.373520 C    556 MOH     0.1166 ****
3640 HC2    -8.642587    6.340994   11.290940 H    556 MOH     0.0372 ****
3641 HC3    -8.916251    7.391825   12.695254 H    556 MOH     0.0372 ****
3642 O1     -9.913335    5.567772   12.747579 O    556 MOH    -0.6497 ****
3643 HO1   -10.686407    6.072775   12.485243 H    556 MOH     0.4215 ****
3644 HC1   -14.983625  -14.195528   12.847989 H    557 MOH     0.0372 ****
3645 C1    -14.339880  -13.411283   12.451302 C    557 MOH     0.1166 ****
3646 HC2   -14.305816  -12.609891   13.188814 H    557 MOH     0.0372 ****
3647 HC3   -14.738829  -12.971191   11.536306 H    557 MOH     0.0372 ****
3648 O1    -13.028140  -13.875869   12.220785 O    557 MOH    -0.6497 ****
3649 HO1   -12.585890  -13.088767   11.895516 H    557 MOH     0.4215 ****
3650 HC1    -8.213616   -7.054857   17.026283 H    558 MOH     0.0372 ****
3651 C1     -8.050803   -7.278985   18.080579 C    558 MOH     0.1166 ****
3652 HC2    -7.483268   -8.205709   18.172503 H    558 MOH     0.0372 ****
3653 HC3    -9.034608   -7.396561   18.534541 H    558 MOH     0.0372 ****
3654 O1     -7.357983   -6.202435   18.672427 O    558 MOH    -0.6497 ****
3655 HO1    -6.519670   -6.111803   18.214222 H    558 MOH     0.4215 ****
3656 HC1   -10.278221  -13.121018   21.785818 H    559 MOH     0.0372 ****
3657 C1    -10.671396  -12.686234   22.704350 C    559 MOH     0.1166 ****
3658 HC2   -10.855571  -11.621522   22.562929 H    559 MOH     0.0372 ****
3659 HC3    -9.972225  -12.830345   23.528130 H    559 MOH     0.0372 ****
3660 O1    -11.835912  -13.347188   23.033155 O    559 MOH    -0.6497 ****
3661 HO1   -12.260264  -12.897706   23.767839 H    559 MOH     0.4215 ****
3662 HC1    -8.491321   -7.159777    7.690352 H    560 MOH     0.0372 ****
3663 C1     -8.624689   -8.182439    7.337506 C    560 MOH     0.1166 ****
3664 HC2    -9.623505   -8.260006    6.908999 H    560 MOH     0.0372 ****
3665 HC3    -8.551366   -8.899323    8.154921 H    560 MOH     0.0372 ****
3666 O1     -7.704393   -8.459639    6.325636 O    560 MOH    -0.6497 ****
3667 HO1    -7.588346   -9.407592    6.233712 H    560 MOH     0.4215 ****
3668 HC1    -6.304319  -16.434361    6.648077 H    561 MOH     0.0372 ****
3669 C1     -7.041018  -16.088575    7.372861 C    561 MOH     0.1166 ****
3670 HC2    -7.311795  -16.896499    8.053805 H    561 MOH     0.0372 ****
3671 HC3    -7.949767  -15.788921    6.852430 H    561 MOH     0.0372 ****
3672 O1     -6.601077  -15.007125    8.166942 O    561 MOH    -0.6497 ****
3673 HO1    -5.653645  -15.075711    8.302706 H    561 MOH     0.4215 ****
3674 HC1    -7.467102  -18.685034   12.410290 H    562 MOH     0.0372 ****
3675 C1     -6.431913  -18.380889   12.254019 C    562 MOH     0.1166 ****
3676 HC2    -5.843016  -19.283526   12.086435 H    562 MOH     0.0372 ****
3677 HC3    -6.058945  -17.824039   13.112447 H    562 MOH     0.0372 ****
3678 O1     -6.434222  -17.649308   11.077393 O    562 MOH    -0.6497 ****
3679 HO1    -5.796828  -16.940181   11.186995 H    562 MOH     0.4215 ****
3680 HC1     5.595448  -13.492932   16.981028 H    563 MOH     0.0372 ****
3681 C1      5.979386  -12.896073   16.153713 C    563 MOH     0.1166 ****
3682 HC2     6.667010  -13.513345   15.575300 H    563 MOH     0.0372 ****
3683 HC3     6.480526  -12.034261   16.595655 H    563 MOH     0.0372 ****
3684 O1      4.914174  -12.456390   15.366703 O    563 MOH    -0.6497 ****
3685 HO1     4.384744  -13.212466   15.105074 H    563 MOH     0.4215 ****
3686 HC1    -3.938337   -4.496773   21.581465 H    564 MOH     0.0372 ****
3687 C1     -3.874829   -5.419823   21.005173 C    564 MOH     0.1166 ****
3688 HC2    -2.843104   -5.623947   20.719501 H    564 MOH     0.0372 ****
3689 HC3    -4.492016   -5.307962   20.114218 H    564 MOH     0.0372 ****
3690 O1     -4.392712   -6.473103   21.770262 O    564 MOH    -0.6497 ****
3691 HO1    -4.142719   -7.297765   21.345998 H    564 MOH     0.4215 ****
3692 HC1   -15.989369   -5.189162   13.099012 H    565 MOH     0.0372 ****
3693 C1    -16.155646   -4.118735   13.217806 C    565 MOH     0.1166 ****
3694 HC2   -15.802308   -3.797852   14.197856 H    565 MOH     0.0372 ****
3695 HC3   -17.222590   -3.905630   13.145681 H    565 MOH     0.0372 ****
3696 O1    -15.468599   -3.404301   12.208057 O    565 MOH    -0.6497 ****
3697 HO1   -15.559243   -3.934207   11.413269 H    565 MOH     0.4215 ****
3698 HC1    -9.326170    1.126847   10.250078 H    566 MOH     0.0372 ****
3699 C1     -8.454948    0.471608   10.230987 C    566 MOH     0.1166 ****
3700 HC2    -8.455526   -0.099939    9.303262 H    566 MOH     0.0372 ****
3701 HC3    -8.482661   -0.237519   11.059009 H    566 MOH     0.0372 ****
3702 O1     -7.276576    1.256262   10.304526 O    566 MOH    -0.6497 ****
3703 HO1    -7.306021    1.766980   11.116991 H    566 MOH     0.4215 ****
3704 HC1     5.487483   -8.036286   15.716721 H    567 MOH     0.0372 ****
3705 C1      6.127765   -8.911570   15.825616 C    567 MOH     0.1166 ****
3706 HC2     5.977654   -9.312470   16.828293 H    567 MOH     0.0372 ****
3707 HC3     7.166418   -8.598852   15.719550 H    567 MOH     0.0372 ****
3708 O1      5.748446   -9.853399   14.822231 O    567 MOH    -0.6497 ****
3709 HO1     5.677431  -10.726642   15.214675 H    567 MOH     0.4215 ****
3710 HC1   -13.511382   -5.638235   12.775157 H    568 MOH     0.0372 ****
3711 C1    -13.244069   -6.642934   13.103961 C    568 MOH     0.1166 ****
3712 HC2   -12.299524   -6.932382   12.643635 H    568 MOH     0.0372 ****
3713 HC3   -14.006749   -7.356552   12.794249 H    568 MOH     0.0372 ****
3714 O1    -13.076637   -6.635178   14.533024 O    568 MOH    -0.6497 ****
3715 HO1   -13.905135   -6.447384   14.979916 H    568 MOH     0.4215 ****
3716 HC1     3.623219   -5.822764   20.137553 H    569 MOH     0.0372 ****
3717 C1      4.481739   -5.461056   19.571867 C    569 MOH     0.1166 ****
3718 HC2     4.133597   -4.941764   18.679498 H    569 MOH     0.0372 ****
3719 HC3     5.111051   -6.301639   19.278418 H    569 MOH     0.0372 ****
3720 O1      5.231140   -4.571483   20.367362 O    569 MOH    -0.6497 ****
3721 HO1     5.398571   -4.989937   21.215183 H    569 MOH     0.4215 ****
3722 HC1     4.422272   -4.501672   10.205531 H    570 MOH     0.0372 ****
3723 C1      3.975403   -4.087708    9.301848 C    570 MOH     0.1166 ****
3724 HC2     2.947719   -3.768867    9.473675 H    570 MOH     0.0372 ****
3725 HC3     4.006002   -4.860114    8.532516 H    570 MOH     0.0372 ****
3726 O1      4.786003   -3.023405    8.913647 O    570 MOH    -0.6497 ****
3727 HO1     4.967868   -2.477169    9.681565 H    570 MOH     0.4215 ****
3728 HC1   -10.629827    0.439357   14.851929 H    571 MOH     0.0372 ****
3729 C1    -11.000486    0.042540   15.796624 C    571 MOH     0.1166 ****
3730 HC2   -10.146007   -0.080343   16.462011 H    571 MOH     0.0372 ****
3731 HC3   -11.472181   -0.933174   15.680658 H    571 MOH     0.0372 ****
3732 O1    -11.855542    0.977836   16.358774 O    571 MOH    -0.6497 ****
3733 HO1   -11.670789    0.979469   17.300640 H    571 MOH     0.4215 ****
3734 HC1   -12.092255  -16.973657    5.339222 H    572 MOH     0.0372 ****
3735 C1    -11.578413  -16.664614    6.249268 C    572 MOH     0.1166 ****
3736 HC2   -10.495304  -16.690741    6.133303 H    572 MOH     0.0372 ****
3737 HC3   -11.881522  -17.303930    7.079412 H    572 MOH     0.0372 ****
3738 O1    -12.017777  -15.407209    6.532111 O    572 MOH    -0.6497 ****
3739 HO1   -12.349753  -15.045093    5.706917 H    572 MOH     0.4215 ****
3740 HC1   -11.341700   -4.235494   20.590101 H    573 MOH     0.0372 ****
3741 C1    -11.408095   -4.495957   21.646518 C    573 MOH     0.1166 ****
3742 HC2   -11.300131   -5.574140   21.770262 H    573 MOH     0.0372 ****
3743 HC3   -12.391900   -4.181197   21.995122 H    573 MOH     0.0372 ****
3744 O1    -10.424290   -3.777031   22.369889 O    573 MOH    -0.6497 ****
3745 HO1    -9.601566   -3.886034   21.886935 H    573 MOH     0.4215 ****
3746 HC1    -3.795155   -1.674553   25.438732 H    574 MOH     0.0372 ****
3747 C1     -3.357523   -2.578006   25.013761 C    574 MOH     0.1166 ****
3748 HC2    -3.113881   -2.382863   23.970071 H    574 MOH     0.0372 ****
3749 HC3    -4.063045   -3.404301   25.107099 H    574 MOH     0.0372 ****
3750 O1     -2.221298   -2.875619   25.761173 O    574 MOH    -0.6497 ****
3751 HO1    -1.593718   -2.149754   25.713090 H    574 MOH     0.4215 ****
3752 HC1    -7.015037   -8.872378   24.805872 H    575 MOH     0.0372 ****
3753 C1     -7.425533   -9.828904   25.129019 C    575 MOH     0.1166 ****
3754 HC2    -6.646687  -10.591512   25.150233 H    575 MOH     0.0372 ****
3755 HC3    -8.210729  -10.107738   24.426862 H    575 MOH     0.0372 ****
3756 O1     -8.021358   -9.684384   26.384841 O    575 MOH    -0.6497 ****
3757 HO1    -7.400707   -9.235311   26.963254 H    575 MOH     0.4215 ****
3758 HC1   -10.632136    1.853121   11.776722 H    576 MOH     0.0372 ****
3759 C1    -10.065756    2.158082   12.657070 C    576 MOH     0.1166 ****
3760 HC2    -9.680086    1.264427   13.148509 H    576 MOH     0.0372 ****
3761 HC3   -10.719894    2.681865   13.353570 H    576 MOH     0.0372 ****
3762 O1     -8.971100    2.972538   12.251898 O    576 MOH    -0.6497 ****
3763 HO1    -9.322129    3.847822   12.075121 H    576 MOH     0.4215 ****
3764 HC1   -18.715617   -7.551695   11.173560 H    577 MOH     0.0372 ****
3765 C1    -18.156742   -6.919319   11.862989 C    577 MOH     0.1166 ****
3766 HC2   -18.111709   -5.918702   11.432361 H    577 MOH     0.0372 ****
3767 HC3   -17.143493   -7.313686   11.943599 H    577 MOH     0.0372 ****
3768 O1    -18.821850   -6.907071   13.151337 O    577 MOH    -0.6497 ****
3769 HO1   -18.354773   -7.525159   13.717023 H    577 MOH     0.4215 ****
3770 HC1   -10.240693  -13.764826    9.072746 H    578 MOH     0.0372 ****
3771 C1    -11.122884  -13.181439    9.333668 C    578 MOH     0.1166 ****
3772 HC2   -10.818620  -12.182864    9.644795 H    578 MOH     0.0372 ****
3773 HC3   -11.658088  -13.671337   10.146841 H    578 MOH     0.0372 ****
3774 O1    -11.943876  -13.126326    8.166235 O    578 MOH    -0.6497 ****
3775 HO1   -12.034520  -14.015082    7.813388 H    578 MOH     0.4215 ****
3776 HC1    -2.703962  -22.757311   14.523832 H    579 MOH     0.0372 ****
3777 C1     -1.866227  -22.529100   13.864101 C    579 MOH     0.1166 ****
3778 HC2    -1.508847  -21.527667   14.099568 H    579 MOH     0.0372 ****
3779 HC3    -2.216679  -22.574007   12.833140 H    579 MOH     0.0372 ****
3780 O1     -0.785427  -23.470929   14.068455 O    579 MOH    -0.6497 ****
3781 HO1     0.047689  -23.082685   13.790562 H    579 MOH     0.4215 ****
3782 HC1    -8.510374  -11.901989   14.139166 H    580 MOH     0.0372 ****
3783 C1     -8.822143  -10.858506   14.103810 C    580 MOH     0.1166 ****
3784 HC2    -8.016162  -10.201227   14.431908 H    580 MOH     0.0372 ****
3785 HC3    -9.665075  -10.735215   14.782633 H    580 MOH     0.0372 ****
3786 O1     -9.275363  -10.512312   12.809805 O    580 MOH    -0.6497 ****
3787 HO1    -9.486673   -9.576607   12.839503 H    580 MOH     0.4215 ****
3788 HC1    -1.814266   -3.888483   21.636619 H    581 MOH     0.0372 ****
3789 C1     -0.888773   -3.588829   22.130180 C    581 MOH     0.1166 ****
3790 HC2    -0.444791   -4.442884   22.642125 H    581 MOH     0.0372 ****
3791 HC3    -1.134724   -2.836836   22.879713 H    581 MOH     0.0372 ****
3792 O1     -0.006582   -3.089541   21.104168 O    581 MOH    -0.6497 ****
3793 HO1    -0.197108   -2.151387   21.029214 H    581 MOH     0.4215 ****
3794 HC1   -12.785075  -12.731141   14.955874 H    582 MOH     0.0372 ****
3795 C1    -12.013735  -13.024263   15.668638 C    582 MOH     0.1166 ****
3796 HC2   -11.115956  -13.280643   15.105781 H    582 MOH     0.0372 ****
3797 HC3   -12.343980  -13.912612   16.207453 H    582 MOH     0.0372 ****
3798 O1    -11.753351  -11.946896   16.577270 O    582 MOH    -0.6497 ****
3799 HO1   -12.419613  -11.971799   17.268113 H    582 MOH     0.4215 ****
3800 HC1   -12.914402  -12.120402   20.839002 H    583 MOH     0.0372 ****
3801 C1    -12.431160  -12.271045   19.873802 C    583 MOH     0.1166 ****
3802 HC2   -11.975630  -13.260639   19.854003 H    583 MOH     0.0372 ****
3803 HC3   -11.670789  -11.501906   19.735209 H    583 MOH     0.0372 ****
3804 O1    -13.462307  -12.221647   18.887388 O    583 MOH    -0.6497 ****
3805 HO1   -13.974994  -11.420664   19.017495 H    583 MOH     0.4215 ****
3806 HC1   -17.214507  -10.692757   14.505447 H    584 MOH     0.0372 ****
3807 C1    -16.626764   -9.777057   14.566965 C    584 MOH     0.1166 ****
3808 HC2   -16.160842   -9.566400   13.603886 H    584 MOH     0.0372 ****
3809 HC3   -15.838104   -9.925659   15.303771 H    584 MOH     0.0372 ****
3810 O1    -17.408496   -8.652333   14.942439 O    584 MOH    -0.6497 ****
3811 HO1   -17.808600   -8.816448   15.799452 H    584 MOH     0.4215 ****
3812 HC1     1.420512   14.655624   12.326851 H    585 MOH     0.0372 ****
3813 C1      0.384169   14.794428   12.633735 C    585 MOH     0.1166 ****
3814 HC2    -0.179325   15.158586   11.775308 H    585 MOH     0.0372 ****
3815 HC3     0.314309   15.544380   13.422159 H    585 MOH     0.0372 ****
3816 O1     -0.141220   13.551720   13.050928 O    585 MOH    -0.6497 ****
3817 HO1    -0.903900   13.703997   13.613078 H    585 MOH     0.4215 ****
3818 HC1    -4.081058    4.114653   16.418171 H    586 MOH     0.0372 ****
3819 C1     -4.881843    3.720693   17.043960 C    586 MOH     0.1166 ****
3820 HC2    -5.447646    2.990337   16.464840 H    586 MOH     0.0372 ****
3821 HC3    -5.554456    4.497590   17.405292 H    586 MOH     0.0372 ****
3822 O1     -4.384745    2.979723   18.088357 O    586 MOH    -0.6497 ****
3823 HO1    -3.840303    3.575765   18.607373 H    586 MOH     0.4215 ****
3824 HC1     8.028286    5.353687   20.924562 H    587 MOH     0.0372 ****
3825 C1      8.089485    6.133441   21.682581 C    587 MOH     0.1166 ****
3826 HC2     8.449752    5.687634   22.610305 H    587 MOH     0.0372 ****
3827 HC3     7.096443    6.558836   21.828245 H    587 MOH     0.0372 ****
3828 O1      8.960707    7.156103   21.254781 O    587 MOH    -0.6497 ****
3829 HO1     9.847517    6.796028   21.188313 H    587 MOH     0.4215 ****
3830 HC1    14.286763   10.102839   15.143965 H    588 MOH     0.0372 ****
3831 C1     14.720353   10.295940   16.124722 C    588 MOH     0.1166 ****
3832 HC2    15.006142   11.346771   16.175633 H    588 MOH     0.0372 ****
3833 HC3    15.608318    9.676628   16.251294 H    588 MOH     0.0372 ****
3834 O1     13.765993    9.981181   17.132349 O    588 MOH    -0.6497 ****
3835 HO1    13.966911    9.089567   17.425091 H    588 MOH     0.4215 ****
3836 HC1     7.649545   -0.750850    7.511454 H    589 MOH     0.0372 ****
3837 C1      7.462483   -1.736770    7.936425 C    589 MOH     0.1166 ****
3838 HC2     7.070462   -1.642056    8.949002 H    589 MOH     0.0372 ****
3839 HC3     8.419730   -2.253204    8.005015 H    589 MOH     0.0372 ****
3840 O1      6.621284   -2.540611    7.087190 O    589 MOH    -0.6497 ****
3841 HO1     5.905369   -2.886805    7.624591 H    589 MOH     0.4215 ****
3842 HC1    10.279952   -0.278915   14.148358 H    590 MOH     0.0372 ****
3843 C1      9.431247    0.155869   14.676567 C    590 MOH     0.1166 ****
3844 HC2     9.294993    1.183022   14.338570 H    590 MOH     0.0372 ****
3845 HC3     9.595792    0.143622   15.754198 H    590 MOH     0.0372 ****
3846 O1      8.265577   -0.542235   14.342813 O    590 MOH    -0.6497 ****
3847 HO1     8.292713   -1.342810   14.872436 H    590 MOH     0.4215 ****
3848 HC1    18.356505    8.491483   10.528679 H    591 MOH     0.0372 ****
3849 C1     18.161938    9.232862   11.303668 C    591 MOH     0.1166 ****
3850 HC2    17.097882    9.274911   11.536306 H    591 MOH     0.0372 ****
3851 HC3    18.463315   10.221231   10.956478 H    591 MOH     0.0372 ****
3852 O1     18.831665    8.902589   12.514942 O    591 MOH    -0.6497 ****
3853 HO1    18.614003    8.008117   12.787178 H    591 MOH     0.4215 ****
3854 HC1     2.470135   13.204301   16.995877 H    592 MOH     0.0372 ****
3855 C1      3.074044   13.755845   17.716419 C    592 MOH     0.1166 ****
3856 HC2     3.885798   13.120610   18.069972 H    592 MOH     0.0372 ****
3857 HC3     2.425679   14.041618   18.545148 H    592 MOH     0.0372 ****
3858 O1      3.578648   14.879752   17.060931 O    592 MOH    -0.6497 ****
3859 HO1     4.391557   15.141439   17.500044 H    592 MOH     0.4215 ****
3860 HC1     9.174327    6.796844    4.534534 H    593 MOH     0.0372 ****
3861 C1      8.382202    6.264488    5.060622 C    593 MOH     0.1166 ****
3862 HC2     8.409338    6.522093    6.119161 H    593 MOH     0.0372 ****
3863 HC3     8.547902    5.196919    4.918493 H    593 MOH     0.0372 ****
3864 O1      7.153601    6.680085    4.504836 O    593 MOH    -0.6497 ****
3865 HO1     6.459048    6.321235    5.062743 H    593 MOH     0.4215 ****
3866 HC1     0.531970    7.882785   21.380646 H    594 MOH     0.0372 ****
3867 C1     -0.488208    7.590071   21.628841 C    594 MOH     0.1166 ****
3868 HC2    -0.649288    7.647634   22.704350 H    594 MOH     0.0372 ****
3869 HC3    -0.696631    6.567817   21.312057 H    594 MOH     0.0372 ****
3870 O1     -1.374440    8.482501   21.027800 O    594 MOH    -0.6497 ****
3871 HO1    -0.922952    8.858906   20.268367 H    594 MOH     0.4215 ****
3872 HC1    13.239450   12.855657   12.057443 H    595 MOH     0.0372 ****
3873 C1     13.287947   11.768084   12.006532 C    595 MOH     0.1166 ****
3874 HC2    12.909783   11.413316   11.048402 H    595 MOH     0.0372 ****
3875 HC3    12.681152   11.321460   12.794249 H    595 MOH     0.0372 ****
3876 O1     14.624513   11.333707   12.080071 O    595 MOH    -0.6497 ****
3877 HO1    14.592182   10.374324   12.101284 H    595 MOH     0.4215 ****
3878 HC1    12.436356    7.274086    4.979305 H    596 MOH     0.0372 ****
3879 C1     12.634964    8.234695    5.453773 C    596 MOH     0.1166 ****
3880 HC2    13.699598    8.451883    5.370335 H    596 MOH     0.0372 ****
3881 HC3    12.405756    8.199585    6.518676 H    596 MOH     0.0372 ****
3882 O1     11.841685    9.230412    4.802528 O    596 MOH    -0.6497 ****
3883 HO1    11.889028   10.006492    5.366092 H    596 MOH     0.4215 ****
3884 HC1    -4.869141   10.669488   17.584897 H    597 MOH     0.0372 ****
3885 C1     -3.828756   10.696840   17.258921 C    597 MOH     0.1166 ****
3886 HC2    -3.244478   10.057115   17.921480 H    597 MOH     0.0372 ****
3887 HC3    -3.487542   11.730525   17.312661 H    597 MOH     0.0372 ****
3888 O1     -3.761784   10.214699   15.935924 O    597 MOH    -0.6497 ****
3889 HO1    -4.356454    9.461889   15.892083 H    597 MOH     0.4215 ****
3890 HC1    -1.988741    5.987288   13.424988 H    598 MOH     0.0372 ****
3891 C1     -1.074218    6.293474   12.917285 C    598 MOH     0.1166 ****
3892 HC2    -0.478970    6.947896   13.554388 H    598 MOH     0.0372 ****
3893 HC3    -1.349614    6.839710   12.015017 H    598 MOH     0.0372 ****
3894 O1     -0.372160    5.154053   12.519184 O    598 MOH    -0.6497 ****
3895 HO1     0.562570    5.352870   12.608987 H    598 MOH     0.4215 ****
3896 HC1    -5.042924    5.649666    8.569286 H    599 MOH     0.0372 ****
3897 C1     -5.000200    5.891349    9.631360 C    599 MOH     0.1166 ****
3898 HC2    -3.963279    5.829296    9.962286 H    599 MOH     0.0372 ****
3899 HC3    -5.597757    5.189571   10.213309 H    599 MOH     0.0372 ****
3900 O1     -5.433790    7.185088    9.900768 O    599 MOH    -0.6497 ****
3901 HO1    -6.203398    7.376557    9.359831 H    599 MOH     0.4215 ****
3902 HC1    -7.646196    9.587221   16.284528 H    600 MOH     0.0372 ****
3903 C1     -8.080941    8.701731   16.747683 C    600 MOH     0.1166 ****
3904 HC2    -8.493169    8.026896   15.997442 H    600 MOH     0.0372 ****
3905 HC3    -8.903088    8.987913   17.404585 H    600 MOH     0.0372 ****
3906 O1     -7.175656    7.999135   17.543178 O    600 MOH    -0.6497 ****
3907 HO1    -7.702199    7.281435   17.903802 H    600 MOH     0.4215 ****
3908 HC1    18.035499   10.521293   14.310286 H    601 MOH     0.0372 ****
3909 C1     18.118060   11.461081   14.856172 C    601 MOH     0.1166 ****
3910 HC2    17.291294   12.116728   14.583229 H    601 MOH     0.0372 ****
3911 HC3    19.075306   11.923218   14.611513 H    601 MOH     0.0372 ****
3912 O1     18.077068   11.103047   16.197554 O    601 MOH    -0.6497 ****
3913 HO1    18.301080   11.846059   16.761825 H    601 MOH     0.4215 ****
3914 HC1     5.942897   15.145522   14.053606 H    602 MOH     0.0372 ****
3915 C1      5.277212   16.004476   14.138459 C    602 MOH     0.1166 ****
3916 HC2     4.235095   15.684410   14.131388 H    602 MOH     0.0372 ****
3917 HC3     5.412312   16.629096   13.255989 H    602 MOH     0.0372 ****
3918 O1      5.502956   16.801377   15.341954 O    602 MOH    -0.6497 ****
3919 HO1     5.430210   16.234320   16.111994 H    602 MOH     0.4215 ****
3920 HC1     6.017375    4.491466   23.003456 H    603 MOH     0.0372 ****
3921 C1      6.317020    3.444309   22.988607 C    603 MOH     0.1166 ****
3922 HC2     6.950951    3.255699   22.121694 H    603 MOH     0.0372 ****
3923 HC3     5.449263    2.790296   22.909411 H    603 MOH     0.0372 ****
3924 O1      7.021965    3.133224   24.182203 O    603 MOH    -0.6497 ****
3925 HO1     7.456132    2.284884   24.063410 H    603 MOH     0.4215 ****
3926 HC1    -1.733552    7.759085    8.956073 H    604 MOH     0.0372 ****
3927 C1     -2.273952    8.628654    8.582721 C    604 MOH     0.1166 ****
3928 HC2    -2.717357    8.299198    7.642976 H    604 MOH     0.0372 ****
3929 HC3    -1.551109    9.431679    8.436350 H    604 MOH     0.0372 ****
3930 O1     -3.265262    8.967092    9.576206 O    604 MOH    -0.6497 ****
3931 HO1    -3.900925    8.253066    9.658937 H    604 MOH     0.4215 ****
3932 HC1    -3.290088    0.987063    4.646964 H    605 MOH     0.0372 ****
3933 C1     -2.877283    1.994620    4.610195 C    605 MOH     0.1166 ****
3934 HC2    -2.962731    2.465330    5.589538 H    605 MOH     0.0372 ****
3935 HC3    -3.454056    2.582497    3.896017 H    605 MOH     0.0372 ****
3936 O1     -1.537830    1.939098    4.178860 O    605 MOH    -0.6497 ****
3937 HO1    -1.504344    1.278552    3.483067 H    605 MOH     0.4215 ****
3938 HC1     2.883518   19.399469   16.787281 H    606 MOH     0.0372 ****
3939 C1      2.429143   19.697490   15.842586 C    606 MOH     0.1166 ****
3940 HC2     1.348344   19.562768   15.890669 H    606 MOH     0.0372 ****
3941 HC3     2.851764   19.072870   15.054869 H    606 MOH     0.0372 ****
3942 O1      2.710890   21.054916   15.583078 O    606 MOH    -0.6497 ****
3943 HO1     2.441268   21.249242   14.682224 H    606 MOH     0.4215 ****
3944 HC1     3.924481   22.313137   19.910571 H    607 MOH     0.0372 ****
3945 C1      3.582689   21.643610   19.121440 C    607 MOH     0.1166 ****
3946 HC2     3.084436   20.767509   19.537219 H    607 MOH     0.0372 ****
3947 HC3     4.455065   21.325584   18.550805 H    607 MOH     0.0372 ****
3948 O1      2.801534   22.373558   18.199373 O    607 MOH    -0.6497 ****
3949 HO1     2.828670   21.886518   17.372765 H    607 MOH     0.4215 ****
3950 HC1     6.691143    5.607209   15.579542 H    608 MOH     0.0372 ****
3951 C1      6.550847    5.452891   14.510397 C    608 MOH     0.1166 ****
3952 HC2     6.354548    6.407375   14.021079 H    608 MOH     0.0372 ****
3953 HC3     5.716576    4.773974   14.334327 H    608 MOH     0.0372 ****
3954 O1      7.726332    4.898490   13.958854 O    608 MOH    -0.6497 ****
3955 HO1     8.372964    4.797652   14.661011 H    608 MOH     0.4215 ****
3956 HC1     9.454341   13.643576   16.870012 H    609 MOH     0.0372 ****
3957 C1      9.937006   12.677661   16.722934 C    609 MOH     0.1166 ****
3958 HC2     9.163934   11.923626   16.575149 H    609 MOH     0.0372 ****
3959 HC3    10.501655   12.435161   17.622374 H    609 MOH     0.0372 ****
3960 O1     10.845178   12.705422   15.600048 O    609 MOH    -0.6497 ****
3961 HO1    11.556474   13.309629   15.829151 H    609 MOH     0.4215 ****
3962 HC1     4.147338    5.401043    8.210783 H    610 MOH     0.0372 ****
3963 C1      3.986257    4.388179    8.579185 C    610 MOH     0.1166 ****
3964 HC2     3.235124    4.433087    9.366902 H    610 MOH     0.0372 ****
3965 HC3     4.911172    3.987688    8.994257 H    610 MOH     0.0372 ****
3966 O1      3.534769    3.541472    7.522768 O    610 MOH    -0.6497 ****
3967 HO1     3.939492    2.683334    7.672674 H    610 MOH     0.4215 ****
3968 HC1    13.152847   -0.481815   15.824908 H    611 MOH     0.0372 ****
3969 C1     12.986570   -0.394858   16.899004 C    611 MOH     0.1166 ****
3970 HC2    13.058739    0.661281   17.158512 H    611 MOH     0.0372 ****
3971 HC3    13.773499   -0.948851   17.411656 H    611 MOH     0.0372 ****
3972 O1     11.660974   -0.913741   17.133056 O    611 MOH    -0.6497 ****
3973 HO1    11.349782   -0.565097   17.971685 H    611 MOH     0.4215 ****
3974 HC1    -3.473686    8.088134   19.023859 H    612 MOH     0.0372 ****
3975 C1     -3.865129    7.318994   18.359179 C    612 MOH     0.1166 ****
3976 HC2    -3.365721    7.352878   17.391150 H    612 MOH     0.0372 ****
3977 HC3    -4.936691    7.481477   18.234728 H    612 MOH     0.0372 ****
3978 O1     -3.724256    6.052199   18.943956 O    612 MOH    -0.6497 ****
3979 HO1    -4.170548    6.051791   19.793192 H    612 MOH     0.4215 ****
3980 HC1    12.746393    5.656199   14.643333 H    613 MOH     0.0372 ****
3981 C1     12.729650    4.649050   14.225433 C    613 MOH     0.1166 ****
3982 HC2    13.231367    3.990545   14.933247 H    613 MOH     0.0372 ****
3983 HC3    13.281019    4.620473   13.284981 H    613 MOH     0.0372 ****
3984 O1     11.386733    4.213449   14.076233 O    613 MOH    -0.6497 ****
3985 HO1    10.894830    4.474320   14.859001 H    613 MOH     0.4215 ****
3986 HC1     6.881091    9.447192   13.775006 H    614 MOH     0.0372 ****
3987 C1      5.817612    9.648050   13.643484 C    614 MOH     0.1166 ****
3988 HC2     5.235643    8.727042   13.670354 H    614 MOH     0.0372 ****
3989 HC3     5.652490   10.118761   12.674041 H    614 MOH     0.0372 ****
3990 O1      5.367279   10.538440   14.622827 O    614 MOH    -0.6497 ****
3991 HO1     5.477553   11.432912   14.292608 H    614 MOH     0.4215 ****
3992 HC1    10.594031   12.374741   10.978398 H    615 MOH     0.0372 ****
3993 C1     10.189886   12.720527   10.027340 C    615 MOH     0.1166 ****
3994 HC2     9.256888   12.197153    9.815208 H    615 MOH     0.0372 ****
3995 HC3    10.910996   12.575599    9.223359 H    615 MOH     0.0372 ****
3996 O1      9.943357   14.086526   10.181489 O    615 MOH    -0.6497 ****
3997 HO1    10.767813   14.542131   10.369580 H    615 MOH     0.4215 ****
3998 HC1     6.361476    1.118927   16.181997 H    616 MOH     0.0372 ****
3999 C1      6.175569    1.704763   15.281850 C    616 MOH     0.1166 ****
4000 HC2     6.193467    1.080960   14.388067 H    616 MOH     0.0372 ****
4001 HC3     6.923238    2.490233   15.172956 H    616 MOH     0.0372 ****
4002 O1      4.933111    2.293049   15.411251 O    616 MOH    -0.6497 ****
4003 HO1     4.634621    2.403684   14.505447 H    616 MOH     0.4215 ****
4004 HC1     7.546199    4.693957   17.601161 H    617 MOH     0.0372 ****
4005 C1      8.300218    3.940331   17.373472 C    617 MOH     0.1166 ****
4006 HC2     7.814089    3.050758   16.973957 H    617 MOH     0.0372 ****
4007 HC3     8.789234    3.650883   18.303318 H    617 MOH     0.0372 ****
4008 O1      9.234371    4.482485   16.428778 O    617 MOH    -0.6497 ****
4009 HO1     9.450877    5.380223   16.688286 H    617 MOH     0.4215 ****
4010 HC1     5.791631   13.046717    8.514838 H    618 MOH     0.0372 ****
4011 C1      5.554340   12.760127    9.540143 C    618 MOH     0.1166 ****
4012 HC2     6.316443   12.097540    9.949558 H    618 MOH     0.0372 ****
4013 HC3     4.601135   12.231445    9.521051 H    618 MOH     0.0372 ****
4014 O1      5.452727   13.886484   10.378065 O    618 MOH    -0.6497 ****
4015 HO1     6.226376   14.442926   10.258564 H    618 MOH     0.4215 ****
4016 HC1     3.482808   -1.935587   14.866779 H    619 MOH     0.0372 ****
4017 C1      3.075776   -0.934970   14.721822 C    619 MOH     0.1166 ****
4018 HC2     2.030194   -0.980694   14.416352 H    619 MOH     0.0372 ****
4019 HC3     3.632341   -0.477324   13.905113 H    619 MOH     0.0372 ****
4020 O1      3.230506   -0.111125   15.878648 O    619 MOH    -0.6497 ****
4021 HO1     3.513407    0.769058   15.618433 H    619 MOH     0.4215 ****
4022 HC1     2.888714    2.469821   17.089215 H    620 MOH     0.0372 ****
4023 C1      2.977049    3.455740   17.545299 C    620 MOH     0.1166 ****
4024 HC2     2.376027    3.487584   18.453224 H    620 MOH     0.0372 ****
4025 HC3     2.624865    4.190995   16.821929 H    620 MOH     0.0372 ****
4026 O1      4.317079    3.659456   17.852891 O    620 MOH    -0.6497 ****
4027 HO1     4.802053    3.192828   17.169118 H    620 MOH     0.4215 ****
4028 HC1    12.833573   14.262072    9.311748 H    621 MOH     0.0372 ****
4029 C1     13.253884   15.145522    9.792580 C    621 MOH     0.1166 ****
4030 HC2    13.507340   15.887309    9.035269 H    621 MOH     0.0372 ****
4031 HC3    14.140694   14.862606   10.358973 H    621 MOH     0.0372 ****
4032 O1     12.248717   15.641952   10.615653 O    621 MOH    -0.6497 ****
4033 HO1    12.604942   15.838319   11.484687 H    621 MOH     0.4215 ****
4034 HC1     7.184777   16.569900   21.887642 H    622 MOH     0.0372 ****
4035 C1      7.142054   17.443960   21.237811 C    622 MOH     0.1166 ****
4036 HC2     7.942838   18.144106   21.476106 H    622 MOH     0.0372 ****
4037 HC3     6.202705   17.959986   21.432972 H    622 MOH     0.0372 ****
4038 O1      7.142631   17.089600   19.846225 O    622 MOH    -0.6497 ****
4039 HO1     7.251750   17.882010   19.315187 H    622 MOH     0.4215 ****
4040 HC1     4.852282   -2.367513   17.903095 H    623 MOH     0.0372 ****
4041 C1      5.928463   -2.359348   17.733390 C    623 MOH     0.1166 ****
4042 HC2     6.348774   -1.499169   18.253113 H    623 MOH     0.0372 ****
4043 HC3     6.132268   -2.298928   16.664244 H    623 MOH     0.0372 ****
4044 O1      6.521979   -3.504077   18.234021 O    623 MOH    -0.6497 ****
4045 HO1     6.060099   -3.765356   19.033052 H    623 MOH     0.4215 ****
4046 HC1     1.498455   12.300439   10.501808 H    624 MOH     0.0372 ****
4047 C1      0.915908   11.427605   10.797379 C    624 MOH     0.1166 ****
4048 HC2     1.251926   10.512720   10.310182 H    624 MOH     0.0372 ****
4049 HC3    -0.104270   11.607642   10.460089 H    624 MOH     0.0372 ****
4050 O1      0.908980   11.280635   12.200279 O    624 MOH    -0.6497 ****
4051 HO1     0.722496   12.142447   12.581409 H    624 MOH     0.4215 ****
4052 HC1     0.667648    9.285934   14.772733 H    625 MOH     0.0372 ****
4053 C1      1.699373    9.002202   14.566965 C    625 MOH     0.1166 ****
4054 HC2     1.970150    8.176315   15.223868 H    625 MOH     0.0372 ****
4055 HC3     2.347737    9.852991   14.777683 H    625 MOH     0.0372 ****
4056 O1      1.837359    8.682951   13.205078 O    625 MOH    -0.6497 ****
4057 HO1     1.540601    9.475770   12.752529 H    625 MOH     0.4215 ****
4058 HC1     6.161713    8.558436    9.086181 H    626 MOH     0.0372 ****
4059 C1      6.176147    9.265930    8.256744 C    626 MOH     0.1166 ****
4060 HC2     5.185414    9.697040    8.115323 H    626 MOH     0.0372 ****
4061 HC3     6.515051    8.772766    7.345991 H    626 MOH     0.0372 ****
4062 O1      7.053142   10.317577    8.563629 O    626 MOH    -0.6497 ****
4063 HO1     7.249441   10.324518    9.503374 H    626 MOH     0.4215 ****
4064 HC1    12.293173    4.723759   22.415851 H    627 MOH     0.0372 ****
4065 C1     12.368228    5.765609   22.106138 C    627 MOH     0.1166 ****
4066 HC2    13.406881    5.990146   21.862893 H    627 MOH     0.0372 ****
4067 HC3    12.006230    6.366959   22.941231 H    627 MOH     0.0372 ****
4068 O1     11.480263    5.923193   21.029921 O    627 MOH    -0.6497 ****
4069 HO1    11.847458    5.402676   20.312208 H    627 MOH     0.4215 ****
4070 HC1     2.018070    0.811108   22.964566 H    628 MOH     0.0372 ****
4071 C1      3.010535    0.831929   22.514139 C    628 MOH     0.1166 ****
4072 HC2     3.533614    1.743139   22.804052 H    628 MOH     0.0372 ****
4073 HC3     2.950491    0.776407   21.428022 H    628 MOH     0.0372 ****
4074 O1      3.745502   -0.232783   22.962444 O    628 MOH    -0.6497 ****
4075 HO1     3.298633   -1.028867   22.666874 H    628 MOH     0.4215 ****
4076 HC1    -0.041916   13.040594   15.969865 H    629 MOH     0.0372 ****
4077 C1     -0.281516   12.407809   16.824050 C    629 MOH     0.1166 ****
4078 HC2    -1.327097   12.532324   17.104772 H    629 MOH     0.0372 ****
4079 HC3     0.350682   12.715220   17.657729 H    629 MOH     0.0372 ****
4080 O1      0.020438   11.057732   16.507973 O    629 MOH    -0.6497 ****
4081 HO1    -0.442020   10.784614   15.712478 H    629 MOH     0.4215 ****
4082 HC1    -2.635373    5.102206    6.870108 H    630 MOH     0.0372 ****
4083 C1     -1.847290    5.136498    6.117746 C    630 MOH     0.1166 ****
4084 HC2    -2.267601    5.528008    5.190729 H    630 MOH     0.0372 ****
4085 HC3    -1.449496    4.138740    5.931070 H    630 MOH     0.0372 ****
4086 O1     -0.840968    6.036686    6.467764 O    630 MOH    -0.6497 ****
4087 HO1    -0.013626    5.571691    6.324222 H    630 MOH     0.4215 ****
4088 HC1    10.915615   13.196953    6.437359 H    631 MOH     0.0372 ****
4089 C1     11.659242   12.676028    5.834904 C    631 MOH     0.1166 ****
4090 HC2    12.574920   13.265538    5.786821 H    631 MOH     0.0372 ****
4091 HC3    11.323224   12.554778    4.804649 H    631 MOH     0.0372 ****
4092 O1     11.997569   11.447200    6.418974 O    631 MOH    -0.6497 ****
4093 HO1    11.293779   11.175715    7.012237 H    631 MOH     0.4215 ****
4094 HC1    11.631529    7.519852   11.097192 H    632 MOH     0.0372 ****
4095 C1     11.592270    6.450241   10.892132 C    632 MOH     0.1166 ****
4096 HC2    10.814001    6.021989   11.523578 H    632 MOH     0.0372 ****
4097 HC3    12.561063    6.013824   11.136083 H    632 MOH     0.0372 ****
4098 O1     11.303594    6.158344    9.523880 O    632 MOH    -0.6497 ****
4099 HO1    11.733143    5.343889    9.251644 H    632 MOH     0.4215 ****
4100 HC1    15.793070    6.199985    8.850714 H    633 MOH     0.0372 ****
4101 C1     15.270568    7.129158    9.078403 C    633 MOH     0.1166 ****
4102 HC2    14.238266    6.916053    9.357003 H    633 MOH     0.0372 ****
4103 HC3    15.310983    7.775415    8.202297 H    633 MOH     0.0372 ****
4104 O1     15.958192    7.692541   10.144720 O    633 MOH    -0.6497 ****
4105 HO1    16.420650    6.977290   10.587369 H    633 MOH     0.4215 ****
4106 HC1     9.193379    1.414091   18.490701 H    634 MOH     0.0372 ****
4107 C1      9.444526    0.893574   19.414890 C    634 MOH     0.1166 ****
4108 HC2     8.777687    0.039927   19.535805 H    634 MOH     0.0372 ****
4109 HC3     9.321551    1.563509   20.265539 H    634 MOH     0.0372 ****
4110 O1     10.784556    0.462872   19.318016 O    634 MOH    -0.6497 ****
4111 HO1    10.974505   -0.092754   20.076742 H    634 MOH     0.4215 ****
4112 HC1    10.666200    8.344513    8.469584 H    635 MOH     0.0372 ****
4113 C1      9.729160    8.600485    7.976730 C    635 MOH     0.1166 ****
4114 HC2     8.890848    8.268579    8.589792 H    635 MOH     0.0372 ****
4115 HC3     9.710685    8.101606    7.007994 H    635 MOH     0.0372 ****
4116 O1      9.698561    9.984039    7.759648 O    635 MOH    -0.6497 ****
4117 HO1     8.782306   10.225313    7.607620 H    635 MOH     0.4215 ****
4118 HC1     0.719609    7.642326   17.711469 H    636 MOH     0.0372 ****
4119 C1     -0.290176    8.041593   17.803393 C    636 MOH     0.1166 ****
4120 HC2    -0.902745    7.300214   18.316753 H    636 MOH     0.0372 ****
4121 HC3    -0.691435    8.233470   16.807787 H    636 MOH     0.0372 ****
4122 O1     -0.222049    9.230412   18.565654 O    636 MOH    -0.6497 ****
4123 HO1     0.112237    9.923618   17.991483 H    636 MOH     0.4215 ****
4124 HC1     7.336621    3.634553    6.761921 H    637 MOH     0.0372 ****
4125 C1      7.642039    2.654349    6.394932 C    637 MOH     0.1166 ****
4126 HC2     8.591203    2.733957    5.865309 H    637 MOH     0.0372 ****
4127 HC3     6.875318    2.262022    5.728131 H    637 MOH     0.0372 ****
4128 O1      7.795614    1.733749    7.469028 O    637 MOH    -0.6497 ****
4129 HO1     8.644896    1.299781    7.360840 H    637 MOH     0.4215 ****
4130 HC1    13.177673    0.986246   13.434888 H    638 MOH     0.0372 ****
4131 C1     14.048895    1.489616   13.015573 C    638 MOH     0.1166 ****
4132 HC2    13.750982    2.438794   12.572217 H    638 MOH     0.0372 ****
4133 HC3    14.487681    0.878061   12.226442 H    638 MOH     0.0372 ****
4134 O1     15.017689    1.764776   14.001280 O    638 MOH    -0.6497 ****
4135 HO1    15.447815    0.926642   14.184421 H    638 MOH     0.4215 ****
4136 HC1    -3.536617   14.878527   16.135328 H    639 MOH     0.0372 ****
4137 C1     -2.674056   15.341481   15.655910 C    639 MOH     0.1166 ****
4138 HC2    -1.887127   15.456199   16.401907 H    639 MOH     0.0372 ****
4139 HC3    -2.991021   16.333524   15.333469 H    639 MOH     0.0372 ****
4140 O1     -2.291272   14.553970   14.496962 O    639 MOH    -0.6497 ****
4141 HO1    -2.985247   14.600102   13.835817 H    639 MOH     0.4215 ****
4142 HC1     3.149676   10.315945   22.396052 H    640 MOH     0.0372 ****
4143 C1      3.757626   11.186738   22.147857 C    640 MOH     0.1166 ****
4144 HC2     4.807249   10.917294   22.033306 H    640 MOH     0.0372 ****
4145 HC3     3.701046   11.908929   22.963151 H    640 MOH     0.0372 ****
4146 O1      3.362719   11.748896   20.937997 O    640 MOH    -0.6497 ****
4147 HO1     3.644466   11.150404   20.242204 H    640 MOH     0.4215 ****
4148 HC1     8.730344   16.565818   11.708133 H    641 MOH     0.0372 ****
4149 C1      7.715362   16.182472   11.604188 C    641 MOH     0.1166 ****
4150 HC2     6.994252   16.999785   11.625401 H    641 MOH     0.0372 ****
4151 HC3     7.480381   15.487634   12.410290 H    641 MOH     0.0372 ****
4152 O1      7.587768   15.470487   10.421905 O    641 MOH    -0.6497 ****
4153 HO1     8.308301   14.837294   10.390086 H    641 MOH     0.4215 ****
4154 HC1     2.209173    2.571883   12.597673 H    642 MOH     0.0372 ****
4155 C1      3.065961    2.313870   11.974005 C    642 MOH     0.1166 ****
4156 HC2     3.251868    3.107096   11.250635 H    642 MOH     0.0372 ****
4157 HC3     2.820010    1.410008   11.416805 H    642 MOH     0.0372 ****
4158 O1      4.229322    2.123218   12.775157 O    642 MOH    -0.6497 ****
4159 HO1     4.925606    1.775390   12.213714 H    642 MOH     0.4215 ****
4160 HC1     8.263845    2.231812   11.780965 H    643 MOH     0.0372 ****
4161 C1      7.765592    1.456140   11.201137 C    643 MOH     0.1166 ****
4162 HC2     8.492476    0.710679   10.878696 H    643 MOH     0.0372 ****
4163 HC3     7.303134    1.930116   10.334931 H    643 MOH     0.0372 ****
4164 O1      6.790447    0.825396   11.998047 O    643 MOH    -0.6497 ****
4165 HO1     7.262143    0.456340   12.747580 H    643 MOH     0.4215 ****
4166 HC1    11.604394    8.283685   18.967998 H    644 MOH     0.0372 ****
4167 C1     10.982010    9.178157   18.958806 C    644 MOH     0.1166 ****
4168 HC2    11.425993    9.965259   19.568332 H    644 MOH     0.0372 ****
4169 HC3    10.010330    8.900139   19.368220 H    644 MOH     0.0372 ****
4170 O1     10.802454    9.630904   17.637223 O    644 MOH    -0.6497 ****
4171 HO1    11.659819    9.906471   17.304176 H    644 MOH     0.4215 ****
4172 HC1     3.344821   14.251458   13.149923 H    645 MOH     0.0372 ****
4173 C1      3.526109   13.213283   13.429231 C    645 MOH     0.1166 ****
4174 HC2     2.866775   12.576007   12.840211 H    645 MOH     0.0372 ****
4175 HC3     3.301520   13.058557   14.484941 H    645 MOH     0.0372 ****
4176 O1      4.856324   12.817690   13.188107 O    645 MOH    -0.6497 ****
4177 HO1     5.035880   12.925876   12.251191 H    645 MOH     0.4215 ****
4178 HC1     7.233275    8.463314   16.808494 H    646 MOH     0.0372 ****
4179 C1      7.687072    9.342681   17.265285 C    646 MOH     0.1166 ****
4180 HC2     8.524230    9.659481   16.643031 H    646 MOH     0.0372 ****
4181 HC3     7.990758    9.093649   18.282104 H    646 MOH     0.0372 ****
4182 O1      6.736754   10.340439   17.229930 O    646 MOH    -0.6497 ****
4183 HO1     6.408819   10.395961   16.329075 H    646 MOH     0.4215 ****
4184 HC1    -0.933922   19.935907   14.479284 H    647 MOH     0.0372 ****
4185 C1     -1.841517   19.872220   15.078911 C    647 MOH     0.1166 ****
4186 HC2    -2.452353   19.025514   14.766369 H    647 MOH     0.0372 ****
4187 HC3    -2.390577   20.804251   14.946682 H    647 MOH     0.0372 ****
4188 O1     -1.469703   19.688917   16.403322 O    647 MOH    -0.6497 ****
4189 HO1    -0.942582   18.886301   16.401907 H    647 MOH     0.4215 ****
4190 HC1    14.596223   11.782372   22.185334 H    648 MOH     0.0372 ****
4191 C1     14.343343   12.647042   22.799103 C    648 MOH     0.1166 ****
4192 HC2    15.151056   12.830346   23.506916 H    648 MOH     0.0372 ****
4193 HC3    13.425357   12.414341   23.337918 H    648 MOH     0.0372 ****
4194 O1     14.151086   13.755436   21.942796 O    648 MOH    -0.6497 ****
4195 HO1    13.465771   13.484360   21.327613 H    648 MOH     0.4215 ****
4196 HC1    10.855571    4.522901   18.651214 H    649 MOH     0.0372 ****
4197 C1     11.678295    3.832145   18.465952 C    649 MOH     0.1166 ****
4198 HC2    11.953691    3.953395   17.418727 H    649 MOH     0.0372 ****
4199 HC3    11.369990    2.792337   18.572725 H    649 MOH     0.0372 ****
4200 O1     12.768332    4.142822   19.350543 O    649 MOH    -0.6497 ****
4201 HO1    13.379169    3.402260   19.363271 H    649 MOH     0.4215 ****
4202 HC1     6.602809    5.864405    9.455998 H    650 MOH     0.0372 ****
4203 C1      7.530033    5.687634    9.999763 C    650 MOH     0.1166 ****
4204 HC2     7.464215    4.762951   10.573226 H    650 MOH     0.0372 ****
4205 HC3     7.753468    6.524134   10.662322 H    650 MOH     0.0372 ****
4206 O1      8.533468    5.585572    9.069210 O    650 MOH    -0.6497 ****
4207 HO1     9.343490    5.926459    9.455998 H    650 MOH     0.4215 ****
4208 HC1    15.689724    5.480652   17.586311 H    651 MOH     0.0372 ****
4209 C1     14.858340    6.164059   17.416606 C    651 MOH     0.1166 ****
4210 HC2    13.936312    5.703964   17.773695 H    651 MOH     0.0372 ****
4211 HC3    14.787903    6.352262   16.345339 H    651 MOH     0.0372 ****
4212 O1     15.186275    7.384722   18.068558 O    651 MOH    -0.6497 ****
4213 HO1    15.799421    7.187538   18.780615 H    651 MOH     0.4215 ****
4214 HC1     8.196295    7.710096   26.069471 H    652 MOH     0.0372 ****
4215 C1      7.304866    8.336757   26.037652 C    652 MOH     0.1166 ****
4216 HC2     6.416324    7.706013   25.997347 H    652 MOH     0.0372 ****
4217 HC3     7.314104    8.954845   25.139626 H    652 MOH     0.0372 ****
4218 O1      7.315259    9.184280   27.159123 O    652 MOH    -0.6497 ****
4219 HO1     8.071010    9.764401   27.042450 H    652 MOH     0.4215 ****
4220 HC1    15.449547    8.306955   13.608836 H    653 MOH     0.0372 ****
4221 C1     14.439761    7.986071   13.352863 C    653 MOH     0.1166 ****
4222 HC2    13.742322    8.416773   14.071991 H    653 MOH     0.0372 ****
4223 HC3    14.358355    6.899723   13.387511 H    653 MOH     0.0372 ****
4224 O1     14.084691    8.445351   12.080778 O    653 MOH    -0.6497 ****
4225 HO1    14.683403    8.037919   11.451453 H    653 MOH     0.4215 ****
4226 HC1     9.853290    8.971991   24.655965 H    654 MOH     0.0372 ****
4227 C1     10.077880   10.037927   24.706170 C    654 MOH     0.1166 ****
4228 HC2     9.718768   10.585797   23.835014 H    654 MOH     0.0372 ****
4229 HC3    11.163876   10.084468   24.634045 H    654 MOH     0.0372 ****
4230 O1      9.717036   10.636011   25.972598 O    654 MOH    -0.6497 ****
4231 HO1     9.644867   11.584780   25.846733 H    654 MOH     0.4215 ****
4232 HC1     8.939922   -4.478974   16.023605 H    655 MOH     0.0372 ****
4233 C1      9.521314   -3.721673   16.550400 C    655 MOH     0.1166 ****
4234 HC2    10.574978   -3.965805   16.413221 H    655 MOH     0.0372 ****
4235 HC3     9.291529   -3.711058   17.615303 H    655 MOH     0.0372 ****
4236 O1      9.393142   -2.461410   15.998150 O    655 MOH    -0.6497 ****
4237 HO1    10.191618   -1.984985   16.239273 H    655 MOH     0.4215 ****
4238 HC1     4.095376    6.878086   21.105582 H    656 MOH     0.0372 ****
4239 C1      4.440632    6.035053   20.508077 C    656 MOH     0.1166 ****
4240 HC2     5.180795    5.503105   21.106996 H    656 MOH     0.0372 ****
4241 HC3     4.882305    6.420848   19.589545 H    656 MOH     0.0372 ****
4242 O1      3.388122    5.117311   20.174322 O    656 MOH    -0.6497 ****
4243 HO1     3.666982    4.604143   19.412768 H    656 MOH     0.4215 ****
4244 HC1    11.252788   15.415374   14.883042 H    657 MOH     0.0372 ****
4245 C1     10.760308   15.851791   14.014008 C    657 MOH     0.1166 ****
4246 HC2     9.818072   16.339240   14.264324 H    657 MOH     0.0372 ****
4247 HC3    10.508006   15.017332   13.359227 H    657 MOH     0.0372 ****
4248 O1     11.598043   16.776882   13.313972 O    657 MOH    -0.6497 ****
4249 HO1    11.057066   17.476620   12.942034 H    657 MOH     0.4215 ****
4250 HC1    17.593826    4.015449   12.543933 H    658 MOH     0.0372 ****
4251 C1     16.687963    4.340006   12.032695 C    658 MOH     0.1166 ****
4252 HC2    15.802308    3.947271   12.531912 H    658 MOH     0.0372 ****
4253 HC3    16.695469    3.991770   10.999612 H    658 MOH     0.0372 ****
4254 O1     16.595010    5.732133   12.046837 O    658 MOH    -0.6497 ****
4255 HO1    16.865210    6.017498   12.922942 H    658 MOH     0.4215 ****
4256 HC1    10.128109    8.579256   14.528782 H    659 MOH     0.0372 ****
4257 C1     10.791485    7.757452   14.798189 C    659 MOH     0.1166 ****
4258 HC2    11.807621    8.143655   14.875971 H    659 MOH     0.0372 ****
4259 HC3    10.777628    6.974840   14.039464 H    659 MOH     0.0372 ****
4260 O1     10.413320    7.330425   16.085124 O    659 MOH    -0.6497 ****
4261 HO1    10.467014    8.099565   16.656466 H    659 MOH     0.4215 ****
4262 HC1    13.908021   14.778507   18.632122 H    660 MOH     0.0372 ****
4263 C1     13.568539   14.032637   17.912995 C    660 MOH     0.1166 ****
4264 HC2    13.062203   13.195320   18.394534 H    660 MOH     0.0372 ****
4265 HC3    14.455349   13.635820   17.418020 H    660 MOH     0.0372 ****
4266 O1     12.727340   14.653174   16.958401 O    660 MOH    -0.6497 ****
4267 HO1    13.256770   15.338215   16.542622 H    660 MOH     0.4215 ****
4268 HC1     4.614414    7.542306    9.651159 H    661 MOH     0.0372 ****
4269 C1      3.983948    7.228771   10.482717 C    661 MOH     0.1166 ****
4270 HC2     3.007648    6.916053   10.112193 H    661 MOH     0.0372 ****
4271 HC3     3.813629    8.055882   11.172853 H    661 MOH     0.0372 ****
4272 O1      4.586124    6.174674   11.178510 O    661 MOH    -0.6497 ****
4273 HO1     3.935450    5.820314   11.788036 H    661 MOH     0.4215 ****
4274 HC1     7.276576   12.274720   12.794956 H    662 MOH     0.0372 ****
4275 C1      7.933024   12.550287   13.620149 C    662 MOH     0.1166 ****
4276 HC2     7.386273   12.514362   14.563430 H    662 MOH     0.0372 ****
4277 HC3     8.279434   13.572949   13.469536 H    662 MOH     0.0372 ****
4278 O1      9.051928   11.678269   13.685203 O    662 MOH    -0.6497 ****
4279 HO1     9.656991   12.004868   14.355540 H    662 MOH     0.4215 ****
4280 HC1    11.053024   16.989579   20.562524 H    663 MOH     0.0372 ****
4281 C1     10.741255   16.570717   21.519946 C    663 MOH     0.1166 ****
4282 HC2    10.214134   17.316994   22.112502 H    663 MOH     0.0372 ****
4283 HC3    11.633839   16.237178   22.048155 H    663 MOH     0.0372 ****
4284 O1      9.926614   15.456607   21.292965 O    663 MOH    -0.6497 ****
4285 HO1     9.240722   15.697882   20.667176 H    663 MOH     0.4215 ****
4286 HC1     3.732800   22.383764   12.843039 H    664 MOH     0.0372 ****
4287 C1      2.825206   22.763435   12.373520 C    664 MOH     0.1166 ****
4288 HC2     2.955687   22.743431   11.290940 H    664 MOH     0.0372 ****
4289 HC3     2.682023   23.794262   12.695254 H    664 MOH     0.0372 ****
4290 O1      1.684939   21.970208   12.747579 O    664 MOH    -0.6497 ****
4291 HO1     0.911867   22.475212   12.485243 H    664 MOH     0.4215 ****
4292 HC1    -3.385351    2.206909   12.847989 H    665 MOH     0.0372 ****
4293 C1     -2.741606    2.991154   12.451302 C    665 MOH     0.1166 ****
4294 HC2    -2.707542    3.792545   13.188814 H    665 MOH     0.0372 ****
4295 HC3    -3.140555    3.431245   11.536306 H    665 MOH     0.0372 ****
4296 O1     -1.429866    2.526567   12.220785 O    665 MOH    -0.6497 ****
4297 HO1    -0.987615    3.313670   11.895516 H    665 MOH     0.4215 ****
4298 HC1     5.890358   13.913837   19.354785 H    666 MOH     0.0372 ****
4299 C1      6.472327   14.156336   18.465245 C    666 MOH     0.1166 ****
4300 HC2     6.435954   13.334532   17.750360 H    666 MOH     0.0372 ****
4301 HC3     7.499433   14.299631   18.802535 H    666 MOH     0.0372 ****
4302 O1      6.006406   15.400677   17.933501 O    666 MOH    -0.6497 ****
4303 HO1     6.422098   16.077961   18.471609 H    666 MOH     0.4215 ****
4304 HC1     3.384658    9.347580   17.026283 H    667 MOH     0.0372 ****
4305 C1      3.547471    9.123451   18.080579 C    667 MOH     0.1166 ****
4306 HC2     4.115006    8.196728   18.172503 H    667 MOH     0.0372 ****
4307 HC3     2.563666    9.005876   18.534541 H    667 MOH     0.0372 ****
4308 O1      4.240291   10.200002   18.672427 O    667 MOH    -0.6497 ****
4309 HO1     5.078604   10.290633   18.214222 H    667 MOH     0.4215 ****
4310 HC1     1.320053    3.281418   21.785818 H    668 MOH     0.0372 ****
4311 C1      0.926878    3.716203   22.704350 C    668 MOH     0.1166 ****
4312 HC2     0.742703    4.780914   22.562929 H    668 MOH     0.0372 ****
4313 HC3     1.626049    3.572091   23.528130 H    668 MOH     0.0372 ****
4314 O1     -0.237638    3.055249   23.033155 O    668 MOH    -0.6497 ****
4315 HO1    -0.661990    3.504730   23.767839 H    668 MOH     0.4215 ****
4316 HC1     5.293955   -0.031925    6.648077 H    669 MOH     0.0372 ****
4317 C1      4.557257    0.313861    7.372861 C    669 MOH     0.1166 ****
4318 HC2     4.286479   -0.494062    8.053805 H    669 MOH     0.0372 ****
4319 HC3     3.648507    0.613516    6.852430 H    669 MOH     0.0372 ****
4320 O1      4.997197    1.395311    8.166942 O    669 MOH    -0.6497 ****
4321 HO1     5.944629    1.326725    8.302706 H    669 MOH     0.4215 ****
4322 HC1     4.131172   -2.282598   12.410290 H    670 MOH     0.0372 ****
4323 C1      5.166361   -1.978453   12.254019 C    670 MOH     0.1166 ****
4324 HC2     5.755258   -2.881090   12.086435 H    670 MOH     0.0372 ****
4325 HC3     5.539329   -1.421602   13.112447 H    670 MOH     0.0372 ****
4326 O1      5.164052   -1.246872   11.077393 O    670 MOH    -0.6497 ****
4327 HO1     5.801446   -0.537745   11.186995 H    670 MOH     0.4215 ****
4328 HC1    17.193722    2.909504   16.981028 H    671 MOH     0.0372 ****
4329 C1     17.577660    3.506363   16.153713 C    671 MOH     0.1166 ****
4330 HC2    18.265284    2.889092   15.575300 H    671 MOH     0.0372 ****
4331 HC3    18.078800    4.368175   16.595655 H    671 MOH     0.0372 ****
4332 O1     16.512448    3.946046   15.366703 O    671 MOH    -0.6497 ****
4333 HO1    15.983018    3.189971   15.105074 H    671 MOH     0.4215 ****
4334 HC1     7.659937   11.905663   21.581465 H    672 MOH     0.0372 ****
4335 C1      7.723445   10.982614   21.005173 C    672 MOH     0.1166 ****
4336 HC2     8.755170   10.778490   20.719501 H    672 MOH     0.0372 ****
4337 HC3     7.106258   11.094474   20.114218 H    672 MOH     0.0372 ****
4338 O1      7.205562    9.929333   21.770262 O    672 MOH    -0.6497 ****
4339 HO1     7.455555    9.104672   21.345998 H    672 MOH     0.4215 ****
4340 HC1    -4.391095   11.213274   13.099012 H    673 MOH     0.0372 ****
4341 C1     -4.557372   12.283701   13.217806 C    673 MOH     0.1166 ****
4342 HC2    -4.204034   12.604584   14.197856 H    673 MOH     0.0372 ****
4343 HC3    -5.624316   12.496807   13.145681 H    673 MOH     0.0372 ****
4344 O1     -3.870325   12.998136   12.208057 O    673 MOH    -0.6497 ****
4345 HO1    -3.960969   12.468229   11.413269 H    673 MOH     0.4215 ****
4346 HC1    17.085757    8.366151   15.716721 H    674 MOH     0.0372 ****
4347 C1     17.726039    7.490866   15.825616 C    674 MOH     0.1166 ****
4348 HC2    17.575928    7.089967   16.828293 H    674 MOH     0.0372 ****
4349 HC3    18.764692    7.803585   15.719550 H    674 MOH     0.0372 ****
4350 O1     17.346720    6.549038   14.822231 O    674 MOH    -0.6497 ****
4351 HO1    17.275706    5.675794   15.214675 H    674 MOH     0.4215 ****
4352 HC1    -1.913108   10.764201   12.775157 H    675 MOH     0.0372 ****
4353 C1     -1.645795    9.759502   13.103961 C    675 MOH     0.1166 ****
4354 HC2    -0.701250    9.470054   12.643635 H    675 MOH     0.0372 ****
4355 HC3    -2.408475    9.045884   12.794249 H    675 MOH     0.0372 ****
4356 O1     -1.478363    9.767259   14.533024 O    675 MOH    -0.6497 ****
4357 HO1    -2.306861    9.955053   14.979916 H    675 MOH     0.4215 ****
4358 HC1    15.221493   10.579673   20.137553 H    676 MOH     0.0372 ****
4359 C1     16.080013   10.941381   19.571867 C    676 MOH     0.1166 ****
4360 HC2    15.731871   11.460673   18.679498 H    676 MOH     0.0372 ****
4361 HC3    16.709325   10.100798   19.278418 H    676 MOH     0.0372 ****
4362 O1     16.829414   11.830954   20.367362 O    676 MOH    -0.6497 ****
4363 HO1    16.996845   11.412499   21.215183 H    676 MOH     0.4215 ****
4364 HC1    16.020546   11.900764   10.205531 H    677 MOH     0.0372 ****
4365 C1     15.573677   12.314728    9.301848 C    677 MOH     0.1166 ****
4366 HC2    14.545994   12.633570    9.473675 H    677 MOH     0.0372 ****
4367 HC3    15.604277   11.542322    8.532516 H    677 MOH     0.0372 ****
4368 O1     16.384277   13.379031    8.913647 O    677 MOH    -0.6497 ****
4369 HO1    16.566142   13.925268    9.681565 H    677 MOH     0.4215 ****
4370 HC1     0.968447   16.841793   14.851929 H    678 MOH     0.0372 ****
4371 C1      0.597788   16.444976   15.796624 C    678 MOH     0.1166 ****
4372 HC2     1.452267   16.322093   16.462011 H    678 MOH     0.0372 ****
4373 HC3     0.126093   15.469263   15.680658 H    678 MOH     0.0372 ****
4374 O1     -0.257267   17.380273   16.358774 O    678 MOH    -0.6497 ****
4375 HO1    -0.072515   17.381906   17.300640 H    678 MOH     0.4215 ****
4376 HC1     0.852400    3.787238   27.003559 H    679 MOH     0.0372 ****
4377 C1      1.746715    3.344697   27.443380 C    679 MOH     0.1166 ****
4378 HC2     1.812533    3.617815   28.496262 H    679 MOH     0.0372 ****
4379 HC3     2.636989    3.714570   26.934263 H    679 MOH     0.0372 ****
4380 O1      1.695331    1.932158   27.327414 O    679 MOH    -0.6497 ****
4381 HO1     2.600616    1.623930   27.415803 H    679 MOH     0.4215 ****
4382 HC1     0.256574   12.166942   20.590101 H    680 MOH     0.0372 ****
4383 C1      0.190179   11.906480   21.646518 C    680 MOH     0.1166 ****
4384 HC2     0.298143   10.828296   21.770262 H    680 MOH     0.0372 ****
4385 HC3    -0.793626   12.221239   21.995122 H    680 MOH     0.0372 ****
4386 O1      1.173984   12.625405   22.369889 O    680 MOH    -0.6497 ****
4387 HO1     1.996708   12.516403   21.886935 H    680 MOH     0.4215 ****
4388 HC1     7.803120   14.727884   25.438732 H    681 MOH     0.0372 ****
4389 C1      8.240751   13.824430   25.013761 C    681 MOH     0.1166 ****
4390 HC2     8.484393   14.019573   23.970071 H    681 MOH     0.0372 ****
4391 HC3     7.535229   12.998136   25.107099 H    681 MOH     0.0372 ****
4392 O1      9.376976   13.526817   25.761173 O    681 MOH    -0.6497 ****
4393 HO1    10.004556   14.252683   25.713090 H    681 MOH     0.4215 ****
4394 HC1     4.583237    7.530058   24.805872 H    682 MOH     0.0372 ****
4395 C1      4.172741    6.573532   25.129019 C    682 MOH     0.1166 ****
4396 HC2     4.951587    5.810925   25.150233 H    682 MOH     0.0372 ****
4397 HC3     3.387545    6.294699   24.426862 H    682 MOH     0.0372 ****
4398 O1      3.576916    6.718052   26.384841 O    682 MOH    -0.6497 ****
4399 HO1     4.197567    7.167126   26.963254 H    682 MOH     0.4215 ****
4400 HC1     0.966138   18.255557   11.776722 H    683 MOH     0.0372 ****
4401 C1      1.532518   18.560519   12.657070 C    683 MOH     0.1166 ****
4402 HC2     1.918188   17.666863   13.148509 H    683 MOH     0.0372 ****
4403 HC3     0.878381   19.084301   13.353570 H    683 MOH     0.0372 ****
4404 O1      2.627175   19.374974   12.251898 O    683 MOH    -0.6497 ****
4405 HO1     2.276146   20.250258   12.075121 H    683 MOH     0.4215 ****
4406 HC1    -7.117343    8.850741   11.173560 H    684 MOH     0.0372 ****
4407 C1     -6.558468    9.483118   11.862989 C    684 MOH     0.1166 ****
4408 HC2    -6.513435   10.483735   11.432361 H    684 MOH     0.0372 ****
4409 HC3    -5.545219    9.088750   11.943599 H    684 MOH     0.0372 ****
4410 O1     -7.223576    9.495365   13.151337 O    684 MOH    -0.6497 ****
4411 HO1    -6.756499    8.877278   13.717023 H    684 MOH     0.4215 ****
4412 HC1     1.357581    2.637611    9.072746 H    685 MOH     0.0372 ****
4413 C1      0.475390    3.220997    9.333668 C    685 MOH     0.1166 ****
4414 HC2     0.779654    4.219573    9.644795 H    685 MOH     0.0372 ****
4415 HC3    -0.059814    2.731099   10.146841 H    685 MOH     0.0372 ****
4416 O1     -0.345602    3.276111    8.166235 O    685 MOH    -0.6497 ****
4417 HO1    -0.436246    2.387354    7.813388 H    685 MOH     0.4215 ****
4418 HC1     8.894312   -6.354874   14.523832 H    686 MOH     0.0372 ****
4419 C1      9.732047   -6.126664   13.864101 C    686 MOH     0.1166 ****
4420 HC2    10.089427   -5.125231   14.099568 H    686 MOH     0.0372 ****
4421 HC3     9.381595   -6.171571   12.833140 H    686 MOH     0.0372 ****
4422 O1     10.812847   -7.068492   14.068455 O    686 MOH    -0.6497 ****
4423 HO1    11.645963   -6.680248   13.790562 H    686 MOH     0.4215 ****
4424 HC1     3.087900    4.500448   14.139166 H    687 MOH     0.0372 ****
4425 C1      2.776131    5.543930   14.103810 C    687 MOH     0.1166 ****
4426 HC2     3.582112    6.201210   14.431908 H    687 MOH     0.0372 ****
4427 HC3     1.933200    5.667221   14.782633 H    687 MOH     0.0372 ****
4428 O1      2.322911    5.890125   12.809805 O    687 MOH    -0.6497 ****
4429 HO1     2.111601    6.825830   12.839503 H    687 MOH     0.4215 ****
4430 HC1     9.784008   12.513953   21.636619 H    688 MOH     0.0372 ****
4431 C1     10.709501   12.813608   22.130180 C    688 MOH     0.1166 ****
4432 HC2    11.153483   11.959552   22.642125 H    688 MOH     0.0372 ****
4433 HC3    10.463550   13.565601   22.879713 H    688 MOH     0.0372 ****
4434 O1     11.591692   13.312895   21.104168 O    688 MOH    -0.6497 ****
4435 HO1    11.401167   14.251050   21.029214 H    688 MOH     0.4215 ****
4436 HC1    -1.186801    3.671295   14.955874 H    689 MOH     0.0372 ****
4437 C1     -0.415461    3.378173   15.668638 C    689 MOH     0.1166 ****
4438 HC2     0.482318    3.121793   15.105781 H    689 MOH     0.0372 ****
4439 HC3    -0.745706    2.489825   16.207453 H    689 MOH     0.0372 ****
4440 O1     -0.155076    4.455540   16.577270 O    689 MOH    -0.6497 ****
4441 HO1    -0.821339    4.430637   17.268113 H    689 MOH     0.4215 ****
4442 HC1    -1.316128    4.282035   20.839002 H    690 MOH     0.0372 ****
4443 C1     -0.832886    4.131391   19.873802 C    690 MOH     0.1166 ****
4444 HC2    -0.377356    3.141797   19.854003 H    690 MOH     0.0372 ****
4445 HC3    -0.072515    4.900531   19.735209 H    690 MOH     0.0372 ****
4446 O1     -1.864033    4.180789   18.887388 O    690 MOH    -0.6497 ****
4447 HO1    -2.376720    4.981772   19.017495 H    690 MOH     0.4215 ****
4448 HC1    -5.616233    5.709679   14.505447 H    691 MOH     0.0372 ****
4449 C1     -5.028490    6.625380   14.566965 C    691 MOH     0.1166 ****
4450 HC2    -4.562568    6.836036   13.603886 H    691 MOH     0.0372 ****
4451 HC3    -4.239830    6.476778   15.303771 H    691 MOH     0.0372 ****
4452 O1     -5.810222    7.750104   14.942439 O    691 MOH    -0.6497 ****
4453 HO1    -6.210326    7.585988   15.799452 H    691 MOH     0.4215 ****
4454 HC1     8.200914   16.382922   16.984563 H    692 MOH     0.0372 ****
4455 C1      9.146614   16.725851   17.404585 C    692 MOH     0.1166 ****
4456 HC2     9.032876   17.700340   17.880468 H    692 MOH     0.0372 ****
4457 HC3     9.876384   16.839344   16.602726 H    692 MOH     0.0372 ****
4458 O1      9.588287   15.803618   18.376857 O    692 MOH    -0.6497 ****
4459 HO1    10.419671   15.415374   18.094721 H    692 MOH     0.4215 ****
4460 HC1     8.118930    8.317161   12.055322 H    693 MOH     0.0372 ****
4461 C1      8.900663    8.990362   11.703890 C    693 MOH     0.1166 ****
4462 HC2     9.460115    8.555578   10.875868 H    693 MOH     0.0372 ****
4463 HC3     9.585977    9.195303   12.525548 H    693 MOH     0.0372 ****
4464 O1      8.326776   10.189796   11.258413 O    693 MOH    -0.6497 ****
4465 HO1     8.521921   10.833195   11.944306 H    693 MOH     0.4215 ****
4466 HC1    13.018787   31.058060   12.326851 H    694 MOH     0.0372 ****
4467 C1     11.982443   31.196865   12.633735 C    694 MOH     0.1166 ****
4468 HC2    11.418949   31.561022   11.775308 H    694 MOH     0.0372 ****
4469 HC3    11.912583   31.946817   13.422159 H    694 MOH     0.0372 ****
4470 O1     11.457054   29.954157   13.050928 O    694 MOH    -0.6497 ****
4471 HO1    10.694374   30.106434   13.613078 H    694 MOH     0.4215 ****
4472 HC1     7.517216   20.517089   16.418171 H    695 MOH     0.0372 ****
4473 C1      6.716431   20.123130   17.043960 C    695 MOH     0.1166 ****
4474 HC2     6.150628   19.392774   16.464840 H    695 MOH     0.0372 ****
4475 HC3     6.043818   20.900026   17.405292 H    695 MOH     0.0372 ****
4476 O1      7.213530   19.382159   18.088357 O    695 MOH    -0.6497 ****
4477 HO1     7.757971   19.978202   18.607373 H    695 MOH     0.4215 ****
4478 HC1    19.247819   15.651586    7.511454 H    696 MOH     0.0372 ****
4479 C1     19.060757   14.665667    7.936425 C    696 MOH     0.1166 ****
4480 HC2    18.668736   14.760380    8.949002 H    696 MOH     0.0372 ****
4481 HC3    20.018004   14.149233    8.005015 H    696 MOH     0.0372 ****
4482 O1     18.219558   13.861826    7.087190 O    696 MOH    -0.6497 ****
4483 HO1    17.503644   13.515631    7.624591 H    696 MOH     0.4215 ****
4484 HC1    21.878226   16.123521   14.148358 H    697 MOH     0.0372 ****
4485 C1     21.029522   16.558306   14.676567 C    697 MOH     0.1166 ****
4486 HC2    20.893267   17.585459   14.338570 H    697 MOH     0.0372 ****
4487 HC3    21.194066   16.546058   15.754198 H    697 MOH     0.0372 ****
4488 O1     19.863851   15.860201   14.342813 O    697 MOH    -0.6497 ****
4489 HO1    19.890987   15.059626   14.872436 H    697 MOH     0.4215 ****
4490 HC1    20.772601   23.199281    4.534534 H    698 MOH     0.0372 ****
4491 C1     19.980476   22.666925    5.060622 C    698 MOH     0.1166 ****
4492 HC2    20.007612   22.924530    6.119161 H    698 MOH     0.0372 ****
4493 HC3    20.146176   21.599356    4.918493 H    698 MOH     0.0372 ****
4494 O1     18.751875   23.082522    4.504836 O    698 MOH    -0.6497 ****
4495 HO1    18.057322   22.723671    5.062743 H    698 MOH     0.4215 ****
4496 HC1    15.927477   28.233390    6.484028 H    699 MOH     0.0372 ****
4497 C1     15.973088   27.778602    5.494078 C    699 MOH     0.1166 ****
4498 HC2    16.890498   27.199706    5.385184 H    699 MOH     0.0372 ****
4499 HC3    15.962696   28.556315    4.731110 H    699 MOH     0.0372 ****
4500 O1     14.869772   26.942101    5.276996 O    699 MOH    -0.6497 ****
4501 HO1    15.129002   26.054569    5.534383 H    699 MOH     0.4215 ****
4502 HC1    24.034630   23.676523    4.979305 H    700 MOH     0.0372 ****
4503 C1     24.233238   24.637131    5.453773 C    700 MOH     0.1166 ****
4504 HC2    25.297872   24.854319    5.370335 H    700 MOH     0.0372 ****
4505 HC3    24.004030   24.602022    6.518676 H    700 MOH     0.0372 ****
4506 O1     23.439959   25.632849    4.802528 O    700 MOH    -0.6497 ****
4507 HO1    23.487302   26.408929    5.366092 H    700 MOH     0.4215 ****
4508 HC1     6.729133   27.071924   17.584897 H    701 MOH     0.0372 ****
4509 C1      7.769518   27.099277   17.258921 C    701 MOH     0.1166 ****
4510 HC2     8.353796   26.459552   17.921480 H    701 MOH     0.0372 ****
4511 HC3     8.110732   28.132961   17.312661 H    701 MOH     0.0372 ****
4512 O1      7.836491   26.617135   15.935924 O    701 MOH    -0.6497 ****
4513 HO1     7.241820   25.864326   15.892083 H    701 MOH     0.4215 ****
4514 HC1     9.609533   22.389724   13.424988 H    702 MOH     0.0372 ****
4515 C1     10.524056   22.695911   12.917285 C    702 MOH     0.1166 ****
4516 HC2    11.119304   23.350333   13.554388 H    702 MOH     0.0372 ****
4517 HC3    10.248660   23.242147   12.015017 H    702 MOH     0.0372 ****
4518 O1     11.226114   21.556490   12.519184 O    702 MOH    -0.6497 ****
4519 HO1    12.160844   21.755307   12.608987 H    702 MOH     0.4215 ****
4520 HC1    22.875888   18.209262    9.991277 H    703 MOH     0.0372 ****
4521 C1     22.923230   18.932678   10.805864 C    703 MOH     0.1166 ****
4522 HC2    22.129951   19.660176   10.634745 H    703 MOH     0.0372 ****
4523 HC3    23.883941   19.446254   10.759195 H    703 MOH     0.0372 ****
4524 O1     22.737901   18.290912   12.099870 O    703 MOH    -0.6497 ****
4525 HO1    22.546221   18.966562   12.755358 H    703 MOH     0.4215 ****
4526 HC1     3.952078   25.989658   16.284528 H    704 MOH     0.0372 ****
4527 C1      3.517333   25.104167   16.747683 C    704 MOH     0.1166 ****
4528 HC2     3.105105   24.429333   15.997442 H    704 MOH     0.0372 ****
4529 HC3     2.695186   25.390349   17.404585 H    704 MOH     0.0372 ****
4530 O1      4.422618   24.401572   17.543178 O    704 MOH    -0.6497 ****
4531 HO1     3.896075   23.683871   17.903802 H    704 MOH     0.4215 ****
4532 HC1     9.864722   24.161522    8.956073 H    705 MOH     0.0372 ****
4533 C1      9.324322   25.031091    8.582721 C    705 MOH     0.1166 ****
4534 HC2     8.880917   24.701634    7.642976 H    705 MOH     0.0372 ****
4535 HC3    10.047165   25.834115    8.436350 H    705 MOH     0.0372 ****
4536 O1      8.333012   25.369529    9.576206 O    705 MOH    -0.6497 ****
4537 HO1     7.697349   24.655502    9.658937 H    705 MOH     0.4215 ****
4538 HC1    24.421454   15.546258   10.595854 H    706 MOH     0.0372 ****
4539 C1     23.741336   14.977568   11.230129 C    706 MOH     0.1166 ****
4540 HC2    24.095829   15.014719   12.260383 H    706 MOH     0.0372 ****
4541 HC3    23.686488   13.941026   10.898496 H    706 MOH     0.0372 ****
4542 O1     22.508693   15.600555   11.148104 O    706 MOH    -0.6497 ****
4543 HO1    22.610884   16.493394   11.483980 H    706 MOH     0.4215 ****
4544 HC1    18.289417   22.009645   15.579542 H    707 MOH     0.0372 ****
4545 C1     18.149121   21.855327   14.510397 C    707 MOH     0.1166 ****
4546 HC2    17.952822   22.809812   14.021079 H    707 MOH     0.0372 ****
4547 HC3    17.314850   21.176410   14.334327 H    707 MOH     0.0372 ****
4548 O1     19.324606   21.300926   13.958854 O    707 MOH    -0.6497 ****
4549 HO1    19.971238   21.200089   14.661011 H    707 MOH     0.4215 ****
4550 HC1    15.745612   21.803480    8.210783 H    708 MOH     0.0372 ****
4551 C1     15.584531   20.790616    8.579185 C    708 MOH     0.1166 ****
4552 HC2    14.833398   20.835523    9.366902 H    708 MOH     0.0372 ****
4553 HC3    16.509446   20.390124    8.994257 H    708 MOH     0.0372 ****
4554 O1     15.133043   19.943909    7.522768 O    708 MOH    -0.6497 ****
4555 HO1    15.537766   19.085771    7.672674 H    708 MOH     0.4215 ****
4556 HC1    24.751121   15.920622   15.824908 H    709 MOH     0.0372 ****
4557 C1     24.584844   16.007579   16.899004 C    709 MOH     0.1166 ****
4558 HC2    24.657013   17.063717   17.158512 H    709 MOH     0.0372 ****
4559 HC3    25.371773   15.453586   17.411656 H    709 MOH     0.0372 ****
4560 O1     23.259248   15.488695   17.133056 O    709 MOH    -0.6497 ****
4561 HO1    22.948056   15.837339   17.971685 H    709 MOH     0.4215 ****
4562 HC1     8.124588   24.490570   19.023859 H    710 MOH     0.0372 ****
4563 C1      7.733145   23.721430   18.359179 C    710 MOH     0.1166 ****
4564 HC2     8.232553   23.755315   17.391150 H    710 MOH     0.0372 ****
4565 HC3     6.661583   23.883913   18.234728 H    710 MOH     0.0372 ****
4566 O1      7.874018   22.454636   18.943956 O    710 MOH    -0.6497 ****
4567 HO1     7.427726   22.454228   19.793192 H    710 MOH     0.4215 ****
4568 HC1    24.344667   22.058635   14.643333 H    711 MOH     0.0372 ****
4569 C1     24.327924   21.051486   14.225433 C    711 MOH     0.1166 ****
4570 HC2    24.829641   20.392982   14.933247 H    711 MOH     0.0372 ****
4571 HC3    24.879293   21.022909   13.284981 H    711 MOH     0.0372 ****
4572 O1     22.985007   20.615886   14.076233 O    711 MOH    -0.6497 ****
4573 HO1    22.493104   20.876756   14.859001 H    711 MOH     0.4215 ****
4574 HC1    18.479365   25.849629   13.775006 H    712 MOH     0.0372 ****
4575 C1     17.415886   26.050487   13.643484 C    712 MOH     0.1166 ****
4576 HC2    16.833917   25.129479   13.670354 H    712 MOH     0.0372 ****
4577 HC3    17.250764   26.521197   12.674041 H    712 MOH     0.0372 ****
4578 O1     16.965553   26.940876   14.622827 O    712 MOH    -0.6497 ****
4579 HO1    17.075827   27.835348   14.292608 H    712 MOH     0.4215 ****
4580 HC1    17.959750   17.521364   16.181997 H    713 MOH     0.0372 ****
4581 C1     17.773843   18.107200   15.281850 C    713 MOH     0.1166 ****
4582 HC2    17.791741   17.483396   14.388067 H    713 MOH     0.0372 ****
4583 HC3    18.521512   18.892670   15.172956 H    713 MOH     0.0372 ****
4584 O1     16.531386   18.695486   15.411251 O    713 MOH    -0.6497 ****
4585 HO1    16.232896   18.806121   14.505447 H    713 MOH     0.4215 ****
4586 HC1    19.144473   21.096394   17.601161 H    714 MOH     0.0372 ****
4587 C1     19.898492   20.342767   17.373472 C    714 MOH     0.1166 ****
4588 HC2    19.412363   19.453194   16.973957 H    714 MOH     0.0372 ****
4589 HC3    20.387508   20.053319   18.303318 H    714 MOH     0.0372 ****
4590 O1     20.832645   20.884921   16.428778 O    714 MOH    -0.6497 ****
4591 HO1    21.049151   21.782659   16.688286 H    714 MOH     0.4215 ****
4592 HC1    17.389905   29.449154    8.514838 H    715 MOH     0.0372 ****
4593 C1     17.152615   29.162563    9.540143 C    715 MOH     0.1166 ****
4594 HC2    17.914717   28.499977    9.949558 H    715 MOH     0.0372 ****
4595 HC3    16.199409   28.633882    9.521051 H    715 MOH     0.0372 ****
4596 O1     17.051001   30.288921   10.378065 O    715 MOH    -0.6497 ****
4597 HO1    17.824650   30.845363   10.258564 H    715 MOH     0.4215 ****
4598 HC1    15.081082   14.466850   14.866779 H    716 MOH     0.0372 ****
4599 C1     14.674050   15.467466   14.721822 C    716 MOH     0.1166 ****
4600 HC2    13.628468   15.421743   14.416352 H    716 MOH     0.0372 ****
4601 HC3    15.230615   15.925113   13.905113 H    716 MOH     0.0372 ****
4602 O1     14.828780   16.291311   15.878648 O    716 MOH    -0.6497 ****
4603 HO1    15.111681   17.171495   15.618433 H    716 MOH     0.4215 ****
4604 HC1    14.486988   18.872257   17.089215 H    717 MOH     0.0372 ****
4605 C1     14.575323   19.858177   17.545299 C    717 MOH     0.1166 ****
4606 HC2    13.974301   19.890020   18.453224 H    717 MOH     0.0372 ****
4607 HC3    14.223139   20.593432   16.821929 H    717 MOH     0.0372 ****
4608 O1     15.915353   20.061893   17.852891 O    717 MOH    -0.6497 ****
4609 HO1    16.400327   19.595265   17.169118 H    717 MOH     0.4215 ****
4610 HC1    16.450557   14.034923   17.903095 H    718 MOH     0.0372 ****
4611 C1     17.526737   14.043088   17.733390 C    718 MOH     0.1166 ****
4612 HC2    17.947048   14.903267   18.253113 H    718 MOH     0.0372 ****
4613 HC3    17.730542   14.103509   16.664244 H    718 MOH     0.0372 ****
4614 O1     18.120253   12.898360   18.234021 O    718 MOH    -0.6497 ****
4615 HO1    17.658373   12.637081   19.033052 H    718 MOH     0.4215 ****
4616 HC1    13.096729   28.702876   10.501808 H    719 MOH     0.0372 ****
4617 C1     12.514182   27.830041   10.797379 C    719 MOH     0.1166 ****
4618 HC2    12.850200   26.915157   10.310182 H    719 MOH     0.0372 ****
4619 HC3    11.494005   28.010079   10.460089 H    719 MOH     0.0372 ****
4620 O1     12.507254   27.683072   12.200279 O    719 MOH    -0.6497 ****
4621 HO1    12.320770   28.544884   12.581409 H    719 MOH     0.4215 ****
4622 HC1    12.265922   25.688371   14.772733 H    720 MOH     0.0372 ****
4623 C1     13.297647   25.404638   14.566965 C    720 MOH     0.1166 ****
4624 HC2    13.568424   24.578752   15.223868 H    720 MOH     0.0372 ****
4625 HC3    13.946011   26.255427   14.777683 H    720 MOH     0.0372 ****
4626 O1     13.435633   25.085388   13.205078 O    720 MOH    -0.6497 ****
4627 HO1    13.138875   25.878206   12.752529 H    720 MOH     0.4215 ****
4628 HC1    17.759987   24.960872    9.086181 H    721 MOH     0.0372 ****
4629 C1     17.774421   25.668366    8.256744 C    721 MOH     0.1166 ****
4630 HC2    16.783688   26.099477    8.115323 H    721 MOH     0.0372 ****
4631 HC3    18.113325   25.175202    7.345991 H    721 MOH     0.0372 ****
4632 O1     18.651416   26.720014    8.563629 O    721 MOH    -0.6497 ****
4633 HO1    18.847715   26.726954    9.503374 H    721 MOH     0.4215 ****
4634 HC1    12.166618   20.884105    4.151990 H    722 MOH     0.0372 ****
4635 C1     12.596744   20.314190    4.976476 C    722 MOH     0.1166 ****
4636 HC2    13.372125   19.670382    4.561404 H    722 MOH     0.0372 ****
4637 HC3    11.851384   19.665483    5.436803 H    722 MOH     0.0372 ****
4638 O1     13.166011   21.208662    5.916221 O    722 MOH    -0.6497 ****
4639 HO1    13.580548   20.669366    6.592922 H    722 MOH     0.4215 ****
4640 HC1    23.229803   23.922288   11.097192 H    723 MOH     0.0372 ****
4641 C1     23.190544   22.852678   10.892132 C    723 MOH     0.1166 ****
4642 HC2    22.412275   22.424425   11.523578 H    723 MOH     0.0372 ****
4643 HC3    24.159337   22.416261   11.136083 H    723 MOH     0.0372 ****
4644 O1     22.901869   22.560780    9.523880 O    723 MOH    -0.6497 ****
4645 HO1    23.331417   21.746325    9.251644 H    723 MOH     0.4215 ****
4646 HC1    27.391344   22.602422    8.850714 H    724 MOH     0.0372 ****
4647 C1     26.868842   23.531595    9.078403 C    724 MOH     0.1166 ****
4648 HC2    25.836540   23.318489    9.357003 H    724 MOH     0.0372 ****
4649 HC3    26.909257   24.177852    8.202297 H    724 MOH     0.0372 ****
4650 O1     27.556466   24.094977   10.144720 O    724 MOH    -0.6497 ****
4651 HO1    28.018924   23.379726   10.587369 H    724 MOH     0.4215 ****
4652 HC1    22.264474   24.746950    8.469584 H    725 MOH     0.0372 ****
4653 C1     21.327434   25.002922    7.976730 C    725 MOH     0.1166 ****
4654 HC2    20.489122   24.671016    8.589792 H    725 MOH     0.0372 ****
4655 HC3    21.308959   24.504042    7.007994 H    725 MOH     0.0372 ****
4656 O1     21.296835   26.386475    7.759648 O    725 MOH    -0.6497 ****
4657 HO1    20.380580   26.627750    7.607620 H    725 MOH     0.4215 ****
4658 HC1    12.317883   24.044763   17.711469 H    726 MOH     0.0372 ****
4659 C1     11.308098   24.444030   17.803393 C    726 MOH     0.1166 ****
4660 HC2    10.695529   23.702651   18.316753 H    726 MOH     0.0372 ****
4661 HC3    10.906839   24.635906   16.807787 H    726 MOH     0.0372 ****
4662 O1     11.376225   25.632849   18.565654 O    726 MOH    -0.6497 ****
4663 HO1    11.710511   26.326054   17.991483 H    726 MOH     0.4215 ****
4664 HC1    18.934895   20.036989    6.761921 H    727 MOH     0.0372 ****
4665 C1     19.240313   19.056785    6.394932 C    727 MOH     0.1166 ****
4666 HC2    20.189477   19.136394    5.865309 H    727 MOH     0.0372 ****
4667 HC3    18.473592   18.664459    5.728131 H    727 MOH     0.0372 ****
4668 O1     19.393888   18.136185    7.469028 O    727 MOH    -0.6497 ****
4669 HO1    20.243171   17.702217    7.360840 H    727 MOH     0.4215 ****
4670 HC1    24.775947   17.388683   13.434888 H    728 MOH     0.0372 ****
4671 C1     25.647169   17.892053   13.015573 C    728 MOH     0.1166 ****
4672 HC2    25.349256   18.841230   12.572217 H    728 MOH     0.0372 ****
4673 HC3    26.085955   17.280497   12.226442 H    728 MOH     0.0372 ****
4674 O1     26.615963   18.167212   14.001280 O    728 MOH    -0.6497 ****
4675 HO1    27.046089   17.329079   14.184421 H    728 MOH     0.4215 ****
4676 HC1    16.220771   23.712449    1.687015 H    729 MOH     0.0372 ****
4677 C1     17.144532   23.900651    1.139008 C    729 MOH     0.1166 ****
4678 HC2    17.735161   22.985767    1.176484 H    729 MOH     0.0372 ****
4679 HC3    17.667034   24.724088    1.626204 H    729 MOH     0.0372 ****
4680 O1     16.871445   24.252969   -0.215102 O    729 MOH    -0.6497 ****
4681 HO1    17.653177   24.675098   -0.578555 H    729 MOH     0.4215 ****
4682 HC1    13.807447   18.974319   12.597673 H    730 MOH     0.0372 ****
4683 C1     14.664235   18.716306   11.974005 C    730 MOH     0.1166 ****
4684 HC2    14.850142   19.509533   11.250635 H    730 MOH     0.0372 ****
4685 HC3    14.418284   17.812445   11.416805 H    730 MOH     0.0372 ****
4686 O1     15.827596   18.525654   12.775157 O    730 MOH    -0.6497 ****
4687 HO1    16.523880   18.177827   12.213714 H    730 MOH     0.4215 ****
4688 HC1    19.862119   18.634248   11.780965 H    731 MOH     0.0372 ****
4689 C1     19.363866   17.858577   11.201137 C    731 MOH     0.1166 ****
4690 HC2    20.090750   17.113115   10.878696 H    731 MOH     0.0372 ****
4691 HC3    18.901408   18.332553   10.334931 H    731 MOH     0.0372 ****
4692 O1     18.388721   17.227833   11.998047 O    731 MOH    -0.6497 ****
4693 HO1    18.860417   16.858777   12.747580 H    731 MOH     0.4215 ****
4694 HC1    14.943095   30.653895   13.149923 H    732 MOH     0.0372 ****
4695 C1     15.124383   29.615719   13.429231 C    732 MOH     0.1166 ****
4696 HC2    14.465049   28.978444   12.840211 H    732 MOH     0.0372 ****
4697 HC3    14.899794   29.460993   14.484941 H    732 MOH     0.0372 ****
4698 O1     16.454598   29.220127   13.188107 O    732 MOH    -0.6497 ****
4699 HO1    16.634154   29.328312   12.251191 H    732 MOH     0.4215 ****
4700 HC1    18.201083   22.266842    9.455998 H    733 MOH     0.0372 ****
4701 C1     19.128307   22.090070    9.999763 C    733 MOH     0.1166 ****
4702 HC2    19.062489   21.165388   10.573226 H    733 MOH     0.0372 ****
4703 HC3    19.351742   22.926571   10.662322 H    733 MOH     0.0372 ****
4704 O1     20.131742   21.988008    9.069210 O    733 MOH    -0.6497 ****
4705 HO1    20.941764   22.328895    9.455998 H    733 MOH     0.4215 ****
4706 HC1    16.104146   22.410953    4.183102 H    734 MOH     0.0372 ****
4707 C1     16.384161   21.502601    4.716968 C    734 MOH     0.1166 ****
4708 HC2    17.192452   21.006987    4.179567 H    734 MOH     0.0372 ****
4709 HC3    15.553354   20.796739    4.740302 H    734 MOH     0.0372 ****
4710 O1     16.821793   21.763880    6.036429 O    734 MOH    -0.6497 ****
4711 HO1    16.474228   21.059243    6.587972 H    734 MOH     0.4215 ****
4712 HC1    20.538196   11.923463   16.023605 H    735 MOH     0.0372 ****
4713 C1     21.119588   12.680764   16.550400 C    735 MOH     0.1166 ****
4714 HC2    22.173252   12.436631   16.413221 H    735 MOH     0.0372 ****
4715 HC3    20.889803   12.691378   17.615303 H    735 MOH     0.0372 ****
4716 O1     20.991416   13.941026   15.998150 O    735 MOH    -0.6497 ****
4717 HO1    21.789892   14.417452   16.239273 H    735 MOH     0.4215 ****
4718 HC1    20.758744   11.600947   11.360943 H    736 MOH     0.0372 ****
4719 C1     20.725835   12.686071   11.261948 C    736 MOH     0.1166 ****
4720 HC2    21.170972   13.155148   12.139468 H    736 MOH     0.0372 ****
4721 HC3    19.688337   13.011853   11.186995 H    736 MOH     0.0372 ****
4722 O1     21.411727   13.063292   10.096636 O    736 MOH    -0.6497 ****
4723 HO1    21.513341   14.016552   10.136942 H    736 MOH     0.4215 ****
4724 HC1    29.192100   20.417885   12.543933 H    737 MOH     0.0372 ****
4725 C1     28.286237   20.742443   12.032695 C    737 MOH     0.1166 ****
4726 HC2    27.400582   20.349708   12.531912 H    737 MOH     0.0372 ****
4727 HC3    28.293743   20.394207   10.999612 H    737 MOH     0.0372 ****
4728 O1     28.193284   22.134569   12.046837 O    737 MOH    -0.6497 ****
4729 HO1    28.463484   22.419935   12.922942 H    737 MOH     0.4215 ****
4730 HC1    16.212688   23.944742    9.651159 H    738 MOH     0.0372 ****
4731 C1     15.582222   23.631207   10.482717 C    738 MOH     0.1166 ****
4732 HC2    14.605922   23.318489   10.112193 H    738 MOH     0.0372 ****
4733 HC3    15.411903   24.458318   11.172853 H    738 MOH     0.0372 ****
4734 O1     16.184398   22.577110   11.178510 O    738 MOH    -0.6497 ****
4735 HO1    15.533724   22.222751   11.788036 H    738 MOH     0.4215 ****
4736 HC1     8.212923   18.609345   12.847989 H    739 MOH     0.0372 ****
4737 C1      8.856668   19.393590   12.451302 C    739 MOH     0.1166 ****
4738 HC2     8.890732   20.194982   13.188814 H    739 MOH     0.0372 ****
4739 HC3     8.457719   19.833682   11.536306 H    739 MOH     0.0372 ****
4740 O1     10.168408   18.929004   12.220785 O    739 MOH    -0.6497 ****
4741 HO1    10.610659   19.716106   11.895516 H    739 MOH     0.4215 ****
4742 HC1    14.705227   25.645096    7.690352 H    740 MOH     0.0372 ****
4743 C1     14.571859   24.622434    7.337506 C    740 MOH     0.1166 ****
4744 HC2    13.573043   24.544867    6.908999 H    740 MOH     0.0372 ****
4745 HC3    14.645182   23.905550    8.154921 H    740 MOH     0.0372 ****
4746 O1     15.492155   24.345234    6.325636 O    740 MOH    -0.6497 ****
4747 HO1    15.608203   23.397281    6.233712 H    740 MOH     0.4215 ****
4748 HC1    16.892230   16.370512    6.648077 H    741 MOH     0.0372 ****
4749 C1     16.155531   16.716298    7.372861 C    741 MOH     0.1166 ****
4750 HC2    15.884753   15.908374    8.053805 H    741 MOH     0.0372 ****
4751 HC3    15.246781   17.015952    6.852430 H    741 MOH     0.0372 ****
4752 O1     16.595472   17.797748    8.166942 O    741 MOH    -0.6497 ****
4753 HO1    17.542903   17.729162    8.302706 H    741 MOH     0.4215 ****
4754 HC1    15.729446   14.119839   12.410290 H    742 MOH     0.0372 ****
4755 C1     16.764635   14.423984   12.254019 C    742 MOH     0.1166 ****
4756 HC2    17.353532   13.521347   12.086435 H    742 MOH     0.0372 ****
4757 HC3    17.137603   14.980834   13.112447 H    742 MOH     0.0372 ****
4758 O1     16.762326   15.155565   11.077393 O    742 MOH    -0.6497 ****
4759 HO1    17.399720   15.864692   11.186995 H    742 MOH     0.4215 ****
4760 HC1     7.207179   27.615711   13.099012 H    743 MOH     0.0372 ****
4761 C1      7.040902   28.686138   13.217806 C    743 MOH     0.1166 ****
4762 HC2     7.394240   29.007021   14.197856 H    743 MOH     0.0372 ****
4763 HC3     5.973959   28.899243   13.145681 H    743 MOH     0.0372 ****
4764 O1      7.727949   29.400572   12.208057 O    743 MOH    -0.6497 ****
4765 HO1     7.637305   28.870666   11.413269 H    743 MOH     0.4215 ****
4766 HC1     9.685166   27.166638   12.775157 H    744 MOH     0.0372 ****
4767 C1      9.952479   26.161939   13.103961 C    744 MOH     0.1166 ****
4768 HC2    10.897024   25.872491   12.643635 H    744 MOH     0.0372 ****
4769 HC3     9.189800   25.448321   12.794249 H    744 MOH     0.0372 ****
4770 O1     10.119911   26.169695   14.533024 O    744 MOH    -0.6497 ****
4771 HO1     9.291413   26.357490   14.979916 H    744 MOH     0.4215 ****
4772 HC1    20.844770   26.050895    4.799699 H    745 MOH     0.0372 ****
4773 C1     19.920432   26.566104    4.538070 C    745 MOH     0.1166 ****
4774 HC2    19.207404   26.519156    5.361849 H    745 MOH     0.0372 ****
4775 HC3    19.484532   26.119889    3.644994 H    745 MOH     0.0372 ****
4776 O1     20.158300   27.915365    4.258763 O    745 MOH    -0.6497 ****
4777 HO1    20.662904   27.945575    3.442762 H    745 MOH     0.4215 ****
4778 HC1     4.480931   25.253178   11.173560 H    746 MOH     0.0372 ****
4779 C1      5.039806   25.885554   11.862989 C    746 MOH     0.1166 ****
4780 HC2     5.084839   26.886171   11.432361 H    746 MOH     0.0372 ****
4781 HC3     6.053056   25.491187   11.943599 H    746 MOH     0.0372 ****
4782 O1      4.374698   25.897802   13.151337 O    746 MOH    -0.6497 ****
4783 HO1     4.841775   25.279714   13.717023 H    746 MOH     0.4215 ****
4784 HC1    12.955855   19.040047    9.072746 H    747 MOH     0.0372 ****
4785 C1     12.073664   19.623434    9.333668 C    747 MOH     0.1166 ****
4786 HC2    12.377928   20.622009    9.644795 H    747 MOH     0.0372 ****
4787 HC3    11.538461   19.133536   10.146841 H    747 MOH     0.0372 ****
4788 O1     11.252672   19.678547    8.166235 O    747 MOH    -0.6497 ****
4789 HO1    11.162028   18.789791    7.813388 H    747 MOH     0.4215 ****
4790 HC1    20.492586   10.047562   14.523832 H    748 MOH     0.0372 ****
4791 C1     21.330321   10.275773   13.864101 C    748 MOH     0.1166 ****
4792 HC2    21.687701   11.277206   14.099568 H    748 MOH     0.0372 ****
4793 HC3    20.979869   10.230866   12.833140 H    748 MOH     0.0372 ****
4794 O1     22.411121    9.333944   14.068455 O    748 MOH    -0.6497 ****
4795 HO1    23.244237    9.722188   13.790562 H    748 MOH     0.4215 ****
4796 HC1    14.686174   20.902884   14.139166 H    749 MOH     0.0372 ****
4797 C1     14.374405   21.946367   14.103810 C    749 MOH     0.1166 ****
4798 HC2    15.180386   22.603646   14.431908 H    749 MOH     0.0372 ****
4799 HC3    13.531474   22.069658   14.782633 H    749 MOH     0.0372 ****
4800 O1     13.921185   22.292561   12.809805 O    749 MOH    -0.6497 ****
4801 HO1    13.709875   23.228266   12.839503 H    749 MOH     0.4215 ****
4802 HC1    10.411473   20.073732   14.955874 H    750 MOH     0.0372 ****
4803 C1     11.182813   19.780610   15.668638 C    750 MOH     0.1166 ****
4804 HC2    12.080592   19.524230   15.105781 H    750 MOH     0.0372 ****
4805 HC3    10.852568   18.892261   16.207453 H    750 MOH     0.0372 ****
4806 O1     11.443198   20.857977   16.577270 O    750 MOH    -0.6497 ****
4807 HO1    10.776935   20.833074   17.268113 H    750 MOH     0.4215 ****
4808 HC1    10.282146   20.684471   20.839002 H    751 MOH     0.0372 ****
4809 C1     10.765388   20.533828   19.873802 C    751 MOH     0.1166 ****
4810 HC2    11.220918   19.544234   19.854003 H    751 MOH     0.0372 ****
4811 HC3    11.525759   21.302967   19.735209 H    751 MOH     0.0372 ****
4812 O1      9.734241   20.583226   18.887388 O    751 MOH    -0.6497 ****
4813 HO1     9.221554   21.384209   19.017495 H    751 MOH     0.4215 ****
4814 HC1     5.982041   22.112116   14.505447 H    752 MOH     0.0372 ****
4815 C1      6.569784   23.027816   14.566965 C    752 MOH     0.1166 ****
4816 HC2     7.035706   23.238473   13.603886 H    752 MOH     0.0372 ****
4817 HC3     7.358445   22.879214   15.303771 H    752 MOH     0.0372 ****
4818 O1      5.788052   24.152541   14.942439 O    752 MOH    -0.6497 ****
4819 HO1     5.387948   23.988425   15.799452 H    752 MOH     0.4215 ****
4820 HC1    19.717204   24.719597   12.055322 H    753 MOH     0.0372 ****
4821 C1     20.498937   25.392799   11.703890 C    753 MOH     0.1166 ****
4822 HC2    21.058389   24.958014   10.875868 H    753 MOH     0.0372 ****
4823 HC3    21.184251   25.597739   12.525548 H    753 MOH     0.0372 ****
4824 O1     19.925051   26.592232   11.258413 O    753 MOH    -0.6497 ****
4825 HO1    20.120195   27.235632   11.944306 H    753 MOH     0.4215 ****
4826 HC1   -10.177761  -26.350468   -1.878076 H    754 MOH     0.0372 ****
4827 C1    -11.214105  -26.211663   -1.571191 C    754 MOH     0.1166 ****
4828 HC2   -11.777599  -25.847506   -2.429619 H    754 MOH     0.0372 ****
4829 HC3   -11.283965  -25.461711   -0.782767 H    754 MOH     0.0372 ****
4830 O1    -11.739494  -27.454371   -1.153998 O    754 MOH    -0.6497 ****
4831 HO1   -12.502174  -27.302094   -0.591848 H    754 MOH     0.4215 ****
4832 HC1     2.688489  -30.903252    0.939038 H    755 MOH     0.0372 ****
4833 C1      3.122079  -30.710151    1.919795 C    755 MOH     0.1166 ****
4834 HC2     3.407868  -29.659320    1.970707 H    755 MOH     0.0372 ****
4835 HC3     4.010044  -31.329464    2.046367 H    755 MOH     0.0372 ****
4836 O1      2.167719  -31.024910    2.927422 O    755 MOH    -0.6497 ****
4837 HO1     2.368637  -31.916525    3.220165 H    755 MOH     0.4215 ****
4838 HC1    -9.128139  -27.801790    2.790951 H    756 MOH     0.0372 ****
4839 C1     -8.524230  -27.250247    3.511492 C    756 MOH     0.1166 ****
4840 HC2    -7.712476  -27.885481    3.865046 H    756 MOH     0.0372 ****
4841 HC3    -9.172595  -26.964473    4.340222 H    756 MOH     0.0372 ****
4842 O1     -8.019626  -26.126339    2.856004 O    756 MOH    -0.6497 ****
4843 HO1    -7.206717  -25.864652    3.295118 H    756 MOH     0.4215 ****
4844 HC1    -1.727663  -26.318216  -10.789742 H    757 MOH     0.0372 ****
4845 C1     -1.190150  -25.975696  -11.674333 C    757 MOH     0.1166 ****
4846 HC2    -1.518085  -26.549693  -12.541246 H    757 MOH     0.0372 ****
4847 HC3    -0.130712  -26.160224  -11.496142 H    757 MOH     0.0372 ****
4848 O1     -1.450535  -24.595000  -11.943033 O    757 MOH    -0.6497 ****
4849 HO1    -1.191304  -24.390059  -12.843887 H    757 MOH     0.4215 ****
4850 HC1   -11.066304  -33.123307    7.175720 H    758 MOH     0.0372 ****
4851 C1    -12.086482  -33.416021    7.423914 C    758 MOH     0.1166 ****
4852 HC2   -12.247562  -33.358458    8.499424 H    758 MOH     0.0372 ****
4853 HC3   -12.294905  -34.438274    7.107130 H    758 MOH     0.0372 ****
4854 O1    -12.972714  -32.523590    6.822873 O    758 MOH    -0.6497 ****
4855 HO1   -12.521226  -32.147185    6.063441 H    758 MOH     0.4215 ****
4856 HC1     1.641176  -28.150434   -2.147483 H    759 MOH     0.0372 ****
4857 C1      1.689673  -29.238008   -2.198395 C    759 MOH     0.1166 ****
4858 HC2     1.311509  -29.592776   -3.156524 H    759 MOH     0.0372 ****
4859 HC3     1.082878  -29.684631   -1.410678 H    759 MOH     0.0372 ****
4860 O1      3.026239  -29.672384   -2.124856 O    759 MOH    -0.6497 ****
4861 HO1     2.993908  -30.631767   -2.103642 H    759 MOH     0.4215 ****
4862 HC1    -7.269071  -29.175138   -7.720899 H    760 MOH     0.0372 ****
4863 C1     -7.223460  -29.629926   -8.710848 C    760 MOH     0.1166 ****
4864 HC2    -6.306050  -30.208822   -8.819743 H    760 MOH     0.0372 ****
4865 HC3    -7.233852  -28.852213   -9.473817 H    760 MOH     0.0372 ****
4866 O1     -8.326776  -30.466427   -8.927930 O    760 MOH    -0.6497 ****
4867 HO1    -8.067546  -31.353959   -8.670543 H    760 MOH     0.4215 ****
4868 HC1   -16.467415  -30.336604    3.379970 H    761 MOH     0.0372 ****
4869 C1    -15.427030  -30.309251    3.053994 C    761 MOH     0.1166 ****
4870 HC2   -14.842752  -30.948976    3.716553 H    761 MOH     0.0372 ****
4871 HC3   -15.085816  -29.275567    3.107734 H    761 MOH     0.0372 ****
4872 O1    -15.360058  -30.791392    1.730997 O    761 MOH    -0.6497 ****
4873 HO1   -15.954728  -31.544202    1.687157 H    761 MOH     0.4215 ****
4874 HC1     6.437225  -30.484798    0.105359 H    762 MOH     0.0372 ****
4875 C1      6.519786  -29.545010    0.651246 C    762 MOH     0.1166 ****
4876 HC2     5.693020  -28.889364    0.378302 H    762 MOH     0.0372 ****
4877 HC3     7.477032  -29.082873    0.406587 H    762 MOH     0.0372 ****
4878 O1      6.478794  -29.903044    1.992627 O    762 MOH    -0.6497 ****
4879 HO1     6.702806  -29.160032    2.556898 H    762 MOH     0.4215 ****
4880 HC1    -5.655377  -25.860570   -0.151321 H    763 MOH     0.0372 ****
4881 C1     -6.321062  -25.001615   -0.066468 C    763 MOH     0.1166 ****
4882 HC2    -7.363179  -25.321682   -0.073539 H    763 MOH     0.0372 ****
4883 HC3    -6.185962  -24.376995   -0.948937 H    763 MOH     0.0372 ****
4884 O1     -6.095318  -24.204715    1.137028 O    763 MOH    -0.6497 ****
4885 HO1    -6.168064  -24.771771    1.907067 H    763 MOH     0.4215 ****
4886 HC1   -13.331826  -33.247006   -5.248854 H    764 MOH     0.0372 ****
4887 C1    -13.872226  -32.377437   -5.622206 C    764 MOH     0.1166 ****
4888 HC2   -14.315631  -32.706893   -6.561951 H    764 MOH     0.0372 ****
4889 HC3   -13.149383  -31.574413   -5.768577 H    764 MOH     0.0372 ****
4890 O1    -14.863536  -32.038999   -4.628721 O    764 MOH    -0.6497 ****
4891 HO1   -15.499199  -32.753026   -4.545989 H    764 MOH     0.4215 ****
4892 HC1    -8.714756  -21.606622    2.582354 H    765 MOH     0.0372 ****
4893 C1     -9.169131  -21.308601    1.637659 C    765 MOH     0.1166 ****
4894 HC2   -10.249930  -21.443323    1.685743 H    765 MOH     0.0372 ****
4895 HC3    -8.746510  -21.933221    0.849942 H    765 MOH     0.0372 ****
4896 O1     -8.887384  -19.951176    1.378151 O    765 MOH    -0.6497 ****
4897 HO1    -9.157006  -19.756849    0.477297 H    765 MOH     0.4215 ****
4898 HC1    -7.673793  -18.692954    5.705645 H    766 MOH     0.0372 ****
4899 C1     -8.015585  -19.362482    4.916514 C    766 MOH     0.1166 ****
4900 HC2    -8.513838  -20.238582    5.332292 H    766 MOH     0.0372 ****
4901 HC3    -7.143209  -19.680507    4.345878 H    766 MOH     0.0372 ****
4902 O1     -8.796740  -18.632534    3.994446 O    766 MOH    -0.6497 ****
4903 HO1    -8.769604  -19.119574    3.167838 H    766 MOH     0.4215 ****
4904 HC1    -2.143933  -27.362515    2.665086 H    767 MOH     0.0372 ****
4905 C1     -1.661268  -28.328431    2.518007 C    767 MOH     0.1166 ****
4906 HC2    -2.434340  -29.082465    2.370222 H    767 MOH     0.0372 ****
4907 HC3    -1.096619  -28.570930    3.417447 H    767 MOH     0.0372 ****
4908 O1     -0.753096  -28.300670    1.395122 O    767 MOH    -0.6497 ****
4909 HO1    -0.041800  -27.696462    1.624224 H    767 MOH     0.4215 ****
4910 HC1     0.420657  -24.090813   10.801056 H    768 MOH     0.0372 ****
4911 C1     -0.290638  -24.916699   10.790450 C    768 MOH     0.1166 ****
4912 HC2     0.071360  -25.647872   10.067079 H    768 MOH     0.0372 ****
4913 HC3    -1.279639  -24.544377   10.520335 H    768 MOH     0.0372 ****
4914 O1     -0.354147  -25.490288   12.075263 O    768 MOH    -0.6497 ****
4915 HO1    -0.630120  -24.806472   12.689738 H    768 MOH     0.4215 ****
4916 HC1    -3.649662  -22.561107   -6.206983 H    769 MOH     0.0372 ****
4917 C1     -4.230476  -22.179803   -5.366940 C    769 MOH     0.1166 ****
4918 HC2    -3.933141  -21.172655   -5.074905 H    769 MOH     0.0372 ****
4919 HC3    -4.022630  -22.835042   -4.520534 H    769 MOH     0.0372 ****
4920 O1     -5.609766  -22.223486   -5.651904 O    769 MOH    -0.6497 ****
4921 HO1    -6.015066  -22.898320   -5.102482 H    769 MOH     0.4215 ****
4922 HC1    -4.717183  -31.558899   -0.429921 H    770 MOH     0.0372 ****
4923 C1     -5.780662  -31.358041   -0.561443 C    770 MOH     0.1166 ****
4924 HC2    -6.362631  -32.279049   -0.534573 H    770 MOH     0.0372 ****
4925 HC3    -5.945784  -30.887331   -1.530886 H    770 MOH     0.0372 ****
4926 O1     -6.230995  -30.467652    0.417900 O    770 MOH    -0.6497 ****
4927 HO1    -6.120721  -29.573180    0.087681 H    770 MOH     0.4215 ****
4928 HC1    -1.004243  -28.631351   -3.226528 H    771 MOH     0.0372 ****
4929 C1     -1.408388  -28.285564   -4.177587 C    771 MOH     0.1166 ****
4930 HC2    -2.341386  -28.808939   -4.389719 H    771 MOH     0.0372 ****
4931 HC3    -0.687278  -28.430493   -4.981567 H    771 MOH     0.0372 ****
4932 O1     -1.654917  -26.919566   -4.023437 O    771 MOH    -0.6497 ****
4933 HO1    -0.830461  -26.463961   -3.835347 H    771 MOH     0.4215 ****
4934 HC1    -5.806643  -27.959374   -5.690088 H    772 MOH     0.0372 ****
4935 C1     -6.043934  -28.245964   -4.664783 C    772 MOH     0.1166 ****
4936 HC2    -5.281831  -28.908551   -4.255368 H    772 MOH     0.0372 ****
4937 HC3    -6.997139  -28.774646   -4.683875 H    772 MOH     0.0372 ****
4938 O1     -6.145547  -27.119607   -3.826862 O    772 MOH    -0.6497 ****
4939 HO1    -5.371898  -26.563165   -3.946363 H    772 MOH     0.4215 ****
4940 HC1     1.235299  -26.744019   -4.893179 H    773 MOH     0.0372 ****
4941 C1      1.655610  -25.860570   -4.412346 C    773 MOH     0.1166 ****
4942 HC2     1.909066  -25.118782   -5.169657 H    773 MOH     0.0372 ****
4943 HC3     2.542420  -26.143486   -3.845954 H    773 MOH     0.0372 ****
4944 O1      0.650443  -25.364140   -3.589274 O    773 MOH    -0.6497 ****
4945 HO1     1.006668  -25.167772   -2.720240 H    773 MOH     0.4215 ****
4946 HC1    -4.413496  -24.436191    7.682715 H    774 MOH     0.0372 ****
4947 C1     -4.456220  -23.562132    7.032884 C    774 MOH     0.1166 ****
4948 HC2    -3.655436  -22.861986    7.271179 H    774 MOH     0.0372 ****
4949 HC3    -5.395569  -23.046106    7.228046 H    774 MOH     0.0372 ****
4950 O1     -4.455643  -23.916491    5.641298 O    774 MOH    -0.6497 ****
4951 HO1    -4.346524  -23.124081    5.110261 H    774 MOH     0.4215 ****
4952 HC1   -10.099819  -28.705652   -3.703118 H    775 MOH     0.0372 ****
4953 C1    -10.682366  -29.578487   -3.407547 C    775 MOH     0.1166 ****
4954 HC2   -10.346348  -30.493371   -3.894744 H    775 MOH     0.0372 ****
4955 HC3   -11.702544  -29.398449   -3.744837 H    775 MOH     0.0372 ****
4956 O1    -10.689294  -29.725456   -2.004648 O    775 MOH    -0.6497 ****
4957 HO1   -10.875778  -28.863644   -1.623517 H    775 MOH     0.4215 ****
4958 HC1   -10.930626  -31.720157    0.567807 H    776 MOH     0.0372 ****
4959 C1     -9.898901  -32.003890    0.362039 C    776 MOH     0.1166 ****
4960 HC2    -9.628124  -32.829776    1.018941 H    776 MOH     0.0372 ****
4961 HC3    -9.250537  -31.153100    0.572757 H    776 MOH     0.0372 ****
4962 O1     -9.760915  -32.323140   -0.999849 O    776 MOH    -0.6497 ****
4963 HO1   -10.057673  -31.530322   -1.452397 H    776 MOH     0.4215 ****
4964 HC1    -5.436561  -32.447656   -5.118746 H    777 MOH     0.0372 ****
4965 C1     -5.422127  -31.740162   -5.948182 C    777 MOH     0.1166 ****
4966 HC2    -6.412860  -31.309051   -6.089603 H    777 MOH     0.0372 ****
4967 HC3    -5.083223  -32.233325   -6.858936 H    777 MOH     0.0372 ****
4968 O1     -4.545132  -30.688514   -5.641298 O    777 MOH    -0.6497 ****
4969 HO1    -4.348833  -30.681574   -4.701553 H    777 MOH     0.4215 ****
4970 HC1   -11.640190  -27.965498    1.764939 H    778 MOH     0.0372 ****
4971 C1    -11.879790  -28.598283    2.619124 C    778 MOH     0.1166 ****
4972 HC2   -12.925371  -28.473767    2.899845 H    778 MOH     0.0372 ****
4973 HC3   -11.247592  -28.290872    3.452802 H    778 MOH     0.0372 ****
4974 O1    -11.577836  -29.948360    2.303047 O    778 MOH    -0.6497 ****
4975 HO1   -12.040293  -30.221478    1.507552 H    778 MOH     0.4215 ****
4976 HC1    -0.682659  -27.809139   -7.767568 H    779 MOH     0.0372 ****
4977 C1      0.060968  -28.330064   -8.370023 C    779 MOH     0.1166 ****
4978 HC2     0.976646  -27.740553   -8.418106 H    779 MOH     0.0372 ****
4979 HC3    -0.275050  -28.451313   -9.400277 H    779 MOH     0.0372 ****
4980 O1      0.399296  -29.558891   -7.785953 O    779 MOH    -0.6497 ****
4981 HO1    -0.304494  -29.830376   -7.192690 H    779 MOH     0.4215 ****
4982 HC1    -0.932074  -32.661578   -5.735343 H    780 MOH     0.0372 ****
4983 C1     -1.869114  -32.405606   -6.228196 C    780 MOH     0.1166 ****
4984 HC2    -2.707426  -32.737512   -5.615135 H    780 MOH     0.0372 ****
4985 HC3    -1.887589  -32.904486   -7.196933 H    780 MOH     0.0372 ****
4986 O1     -1.899713  -31.022053   -6.445278 O    780 MOH    -0.6497 ****
4987 HO1    -2.815968  -30.780778   -6.597306 H    780 MOH     0.4215 ****
4988 HC1   -10.878665  -33.363765    3.506543 H    781 MOH     0.0372 ****
4989 C1    -11.888450  -32.964498    3.598467 C    781 MOH     0.1166 ****
4990 HC2   -12.501019  -33.705877    4.111826 H    781 MOH     0.0372 ****
4991 HC3   -12.289709  -32.772621    2.602860 H    781 MOH     0.0372 ****
4992 O1    -11.820323  -31.775679    4.360728 O    781 MOH    -0.6497 ****
4993 HO1   -11.486037  -31.082473    3.786557 H    781 MOH     0.4215 ****
4994 HC1   -15.134891  -26.127564    1.930402 H    782 MOH     0.0372 ****
4995 C1    -14.272330  -25.664610    1.450983 C    782 MOH     0.1166 ****
4996 HC2   -13.485401  -25.549893    2.196981 H    782 MOH     0.0372 ****
4997 HC3   -14.589295  -24.672567    1.128542 H    782 MOH     0.0372 ****
4998 O1    -13.889546  -26.452121    0.292035 O    782 MOH    -0.6497 ****
4999 HO1   -14.583521  -26.405989   -0.369110 H    782 MOH     0.4215 ****
5000 HC1    -8.448598  -30.690147    8.191125 H    783 MOH     0.0372 ****
5001 C1     -7.840648  -29.819353    7.942931 C    783 MOH     0.1166 ****
5002 HC2    -6.791025  -30.088797    7.828379 H    783 MOH     0.0372 ****
5003 HC3    -7.897228  -29.097162    8.758225 H    783 MOH     0.0372 ****
5004 O1     -8.235555  -29.257195    6.733071 O    783 MOH    -0.6497 ****
5005 HO1    -7.953808  -29.855687    6.037278 H    783 MOH     0.4215 ****
5006 HC1    -6.975777  -33.696079  -12.517911 H    784 MOH     0.0372 ****
5007 C1     -6.052016  -33.507877  -13.065919 C    784 MOH     0.1166 ****
5008 HC2    -5.461387  -34.422761  -13.028442 H    784 MOH     0.0372 ****
5009 HC3    -5.529514  -32.684440  -12.578722 H    784 MOH     0.0372 ****
5010 O1     -6.325103  -33.155558  -14.420028 O    784 MOH    -0.6497 ****
5011 HO1    -5.543371  -32.733430  -14.783481 H    784 MOH     0.4215 ****
5012 HC1    -2.867930  -24.440274   -2.496794 H    785 MOH     0.0372 ****
5013 C1     -3.882911  -24.823619   -2.600739 C    785 MOH     0.1166 ****
5014 HC2    -4.604022  -24.006306   -2.579525 H    785 MOH     0.0372 ****
5015 HC3    -4.117893  -25.518458   -1.794637 H    785 MOH     0.0372 ****
5016 O1     -4.010506  -25.535604   -3.783021 O    785 MOH    -0.6497 ****
5017 HO1    -3.289973  -26.168797   -3.814841 H    785 MOH     0.4215 ****
5018 HC1     0.006120  -32.722407    4.763071 H    786 MOH     0.0372 ****
5019 C1     -0.616264  -31.827935    4.753879 C    786 MOH     0.1166 ****
5020 HC2    -0.172281  -31.040832    5.363405 H    786 MOH     0.0372 ****
5021 HC3    -1.587944  -32.105952    5.163294 H    786 MOH     0.0372 ****
5022 O1     -0.795820  -31.375187    3.432297 O    786 MOH    -0.6497 ****
5023 HO1     0.061546  -31.099620    3.099249 H    786 MOH     0.4215 ****
5024 HC1    -4.009928  -27.075517   -6.717514 H    787 MOH     0.0372 ****
5025 C1     -3.416990  -27.413954   -7.566750 C    787 MOH     0.1166 ****
5026 HC2    -3.049795  -28.409672   -7.318555 H    787 MOH     0.0372 ****
5027 HC3    -2.570017  -26.744019   -7.718777 H    787 MOH     0.0372 ****
5028 O1     -4.221239  -27.464985   -8.737011 O    787 MOH    -0.6497 ****
5029 HO1    -3.814207  -28.115325   -9.314717 H    787 MOH     0.4215 ****
5030 HC1    -8.253453  -26.754633   -1.055003 H    788 MOH     0.0372 ****
5031 C1     -8.072165  -27.792809   -0.775696 C    788 MOH     0.1166 ****
5032 HC2    -8.731499  -28.430084   -1.364716 H    788 MOH     0.0372 ****
5033 HC3    -8.296754  -27.947535    0.280014 H    788 MOH     0.0372 ****
5034 O1     -6.741950  -28.188401   -1.016819 O    788 MOH    -0.6497 ****
5035 HO1    -6.562394  -28.080216   -1.953736 H    788 MOH     0.4215 ****
5036 HC1    -4.364999  -32.542778    2.603567 H    789 MOH     0.0372 ****
5037 C1     -3.911202  -31.663411    3.060358 C    789 MOH     0.1166 ****
5038 HC2    -3.074044  -31.346610    2.438104 H    789 MOH     0.0372 ****
5039 HC3    -3.607515  -31.912442    4.077178 H    789 MOH     0.0372 ****
5040 O1     -4.861520  -30.665652    3.025003 O    789 MOH    -0.6497 ****
5041 HO1    -5.189455  -30.610130    2.124149 H    789 MOH     0.4215 ****
5042 HC1   -12.532196  -21.070184    0.274357 H    790 MOH     0.0372 ****
5043 C1    -13.439791  -21.133871    0.873984 C    790 MOH     0.1166 ****
5044 HC2   -14.050627  -21.980578    0.561443 H    790 MOH     0.0372 ****
5045 HC3   -13.988851  -20.201840    0.741755 H    790 MOH     0.0372 ****
5046 O1    -13.067977  -21.317174    2.198395 O    790 MOH    -0.6497 ****
5047 HO1   -12.540856  -22.119791    2.196981 H    790 MOH     0.4215 ****
5048 HC1     2.997949  -29.223719    7.980407 H    791 MOH     0.0372 ****
5049 C1      2.745070  -28.359049    8.594176 C    791 MOH     0.1166 ****
5050 HC2     3.552783  -28.175746    9.301990 H    791 MOH     0.0372 ****
5051 HC3     1.827083  -28.591751    9.132991 H    791 MOH     0.0372 ****
5052 O1      2.552812  -27.250655    7.737870 O    791 MOH    -0.6497 ****
5053 HO1     1.867497  -27.521732    7.122687 H    791 MOH     0.4215 ****
5054 HC1    -3.401979  -33.295996   11.864545 H    792 MOH     0.0372 ****
5055 C1     -4.293408  -32.669335   11.832725 C    792 MOH     0.1166 ****
5056 HC2    -5.181950  -33.300078   11.792420 H    792 MOH     0.0372 ****
5057 HC3    -4.284170  -32.051247   10.934699 H    792 MOH     0.0372 ****
5058 O1     -4.283015  -31.821811   12.954196 O    792 MOH    -0.6497 ****
5059 HO1    -3.527264  -31.241690   12.837524 H    792 MOH     0.4215 ****
5060 HC1    -1.744984  -32.034100   10.451038 H    793 MOH     0.0372 ****
5061 C1     -1.520394  -30.968164   10.501243 C    793 MOH     0.1166 ****
5062 HC2    -1.879506  -30.420295    9.630087 H    793 MOH     0.0372 ****
5063 HC3    -0.434398  -30.921624   10.429118 H    793 MOH     0.0372 ****
5064 O1     -1.881238  -30.370080   11.767671 O    793 MOH    -0.6497 ****
5065 HO1    -1.953407  -29.421311   11.641806 H    793 MOH     0.4215 ****
5066 HC1     2.309747  -26.227585    4.427196 H    794 MOH     0.0372 ****
5067 C1      1.970265  -26.973454    3.708068 C    794 MOH     0.1166 ****
5068 HC2     1.463929  -27.810772    4.189608 H    794 MOH     0.0372 ****
5069 HC3     2.857076  -27.370272    3.213093 H    794 MOH     0.0372 ****
5070 O1      1.129066  -26.352917    2.753474 O    794 MOH    -0.6497 ****
5071 HO1     1.658496  -25.667876    2.337695 H    794 MOH     0.4215 ****
5072 HC1    -6.983860  -33.463786   -4.553768 H    795 MOH     0.0372 ****
5073 C1     -7.614326  -33.777320   -3.722210 C    795 MOH     0.1166 ****
5074 HC2    -8.590626  -34.090039   -4.092734 H    795 MOH     0.0372 ****
5075 HC3    -7.784645  -32.950209   -3.032074 H    795 MOH     0.0372 ****
5076 O1     -7.012150  -34.831418   -3.026417 O    795 MOH    -0.6497 ****
5077 HO1    -7.662824  -35.185777   -2.416891 H    795 MOH     0.4215 ****
5078 HC1    -4.321698  -28.731372   -1.409971 H    796 MOH     0.0372 ****
5079 C1     -3.665250  -28.455804   -0.584777 C    796 MOH     0.1166 ****
5080 HC2    -4.212001  -28.491730    0.358503 H    796 MOH     0.0372 ****
5081 HC3    -3.318840  -27.433142   -0.735391 H    796 MOH     0.0372 ****
5082 O1     -2.546346  -29.327822   -0.519723 O    796 MOH    -0.6497 ****
5083 HO1    -1.941283  -29.001224    0.150614 H    796 MOH     0.4215 ****
5084 HC1    -0.545250  -24.016512    6.357597 H    797 MOH     0.0372 ****
5085 C1     -0.857019  -24.435375    7.315020 C    797 MOH     0.1166 ****
5086 HC2    -1.384140  -23.689097    7.907575 H    797 MOH     0.0372 ****
5087 HC3     0.035565  -24.768914    7.843229 H    797 MOH     0.0372 ****
5088 O1     -1.671660  -25.549484    7.088039 O    797 MOH    -0.6497 ****
5089 HO1    -2.357552  -25.308210    6.462249 H    797 MOH     0.4215 ****
5090 HC1    -5.707916  -27.092255    5.149859 H    798 MOH     0.0372 ****
5091 C1     -5.125947  -26.849755    4.260318 C    798 MOH     0.1166 ****
5092 HC2    -5.162320  -27.671559    3.545434 H    798 MOH     0.0372 ****
5093 HC3    -4.098841  -26.706460    4.597608 H    798 MOH     0.0372 ****
5094 O1     -5.591868  -25.605414    3.728574 O    798 MOH    -0.6497 ****
5095 HO1    -5.176176  -24.928130    4.266682 H    798 MOH     0.4215 ****
5096 HC1    -8.213616  -31.658512    2.821356 H    799 MOH     0.0372 ****
5097 C1     -8.050803  -31.882640    3.875652 C    799 MOH     0.1166 ****
5098 HC2    -7.483268  -32.809364    3.967576 H    799 MOH     0.0372 ****
5099 HC3    -9.034608  -32.000216    4.329615 H    799 MOH     0.0372 ****
5100 O1     -7.357983  -30.806089    4.467501 O    799 MOH    -0.6497 ****
5101 HO1    -6.519670  -30.715458    4.009296 H    799 MOH     0.4215 ****
5102 HC1    -8.491321  -31.763432   -6.514575 H    800 MOH     0.0372 ****
5103 C1     -8.624689  -32.786094   -6.867421 C    800 MOH     0.1166 ****
5104 HC2    -9.623505  -32.863661   -7.295928 H    800 MOH     0.0372 ****
5105 HC3    -8.551366  -33.502978   -6.050005 H    800 MOH     0.0372 ****
5106 O1     -7.704393  -33.063294   -7.879291 O    800 MOH    -0.6497 ****
5107 HO1    -7.588345  -34.011247   -7.971215 H    800 MOH     0.4215 ****
5108 HC1    -5.355732  -24.482732   -7.204711 H    801 MOH     0.0372 ****
5109 C1     -6.203282  -25.147360   -7.035005 C    801 MOH     0.1166 ****
5110 HC2    -7.068730  -24.503552   -6.878735 H    801 MOH     0.0372 ****
5111 HC3    -5.970610  -25.749118   -6.156779 H    801 MOH     0.0372 ****
5112 O1     -6.336650  -25.849139   -8.250522 O    801 MOH    -0.6497 ****
5113 HO1    -5.490832  -26.254938   -8.455583 H    801 MOH     0.4215 ****
5114 HC1    -3.938337  -29.100428    7.376538 H    802 MOH     0.0372 ****
5115 C1     -3.874829  -30.023477    6.800246 C    802 MOH     0.1166 ****
5116 HC2    -2.843104  -30.227602    6.514575 H    802 MOH     0.0372 ****
5117 HC3    -4.492016  -29.911617    5.909292 H    802 MOH     0.0372 ****
5118 O1     -4.392712  -31.076758    7.565336 O    802 MOH    -0.6497 ****
5119 HO1    -4.142719  -31.901420    7.141072 H    802 MOH     0.4215 ****
5120 HC1   -15.989369  -29.792817   -1.105915 H    803 MOH     0.0372 ****
5121 C1    -16.155646  -28.722390   -0.987121 C    803 MOH     0.1166 ****
5122 HC2   -15.802308  -28.401507   -0.007071 H    803 MOH     0.0372 ****
5123 HC3   -17.222589  -28.509285   -1.059246 H    803 MOH     0.0372 ****
5124 O1    -15.468599  -28.007956   -1.996870 O    803 MOH    -0.6497 ****
5125 HO1   -15.559243  -28.537862   -2.791658 H    803 MOH     0.4215 ****
5126 HC1    -9.326170  -23.476808   -3.954848 H    804 MOH     0.0372 ****
5127 C1     -8.454948  -24.132046   -3.973940 C    804 MOH     0.1166 ****
5128 HC2    -8.455526  -24.703594   -4.901664 H    804 MOH     0.0372 ****
5129 HC3    -8.482661  -24.841174   -3.145918 H    804 MOH     0.0372 ****
5130 O1     -7.276576  -23.347393   -3.900401 O    804 MOH    -0.6497 ****
5131 HO1    -7.306021  -22.836675   -3.087935 H    804 MOH     0.4215 ****
5132 HC1   -13.511382  -30.241890   -1.429770 H    805 MOH     0.0372 ****
5133 C1    -13.244069  -31.246589   -1.100965 C    805 MOH     0.1166 ****
5134 HC2   -12.299524  -31.536037   -1.561292 H    805 MOH     0.0372 ****
5135 HC3   -14.006748  -31.960207   -1.410678 H    805 MOH     0.0372 ****
5136 O1    -13.076637  -31.238833    0.328098 O    805 MOH    -0.6497 ****
5137 HO1   -13.905135  -31.051038    0.774989 H    805 MOH     0.4215 ****
5138 HC1     3.623219  -30.426418    5.932626 H    806 MOH     0.0372 ****
5139 C1      4.481739  -30.064710    5.366941 C    806 MOH     0.1166 ****
5140 HC2     4.133597  -29.545419    4.474572 H    806 MOH     0.0372 ****
5141 HC3     5.111051  -30.905294    5.073491 H    806 MOH     0.0372 ****
5142 O1      5.231140  -29.175137    6.162436 O    806 MOH    -0.6497 ****
5143 HO1     5.398571  -29.593592    7.010257 H    806 MOH     0.4215 ****
5144 HC1     4.422272  -29.105327   -3.999396 H    807 MOH     0.0372 ****
5145 C1      3.975403  -28.691363   -4.903078 C    807 MOH     0.1166 ****
5146 HC2     2.947720  -28.372521   -4.731251 H    807 MOH     0.0372 ****
5147 HC3     4.006003  -29.463769   -5.672410 H    807 MOH     0.0372 ****
5148 O1      4.786003  -27.627060   -5.291280 O    807 MOH    -0.6497 ****
5149 HO1     4.967868  -27.080824   -4.523362 H    807 MOH     0.4215 ****
5150 HC1    -2.351778  -31.357633   -9.405227 H    808 MOH     0.0372 ****
5151 C1     -3.276116  -30.842424   -9.666857 C    808 MOH     0.1166 ****
5152 HC2    -3.989144  -30.889372   -8.843077 H    808 MOH     0.0372 ****
5153 HC3    -3.712016  -31.288639  -10.559932 H    808 MOH     0.0372 ****
5154 O1     -3.038248  -29.493163   -9.946164 O    808 MOH    -0.6497 ****
5155 HO1    -2.533644  -29.462953  -10.762165 H    808 MOH     0.4215 ****
5156 HC1   -10.629827  -24.164298    0.647003 H    809 MOH     0.0372 ****
5157 C1    -11.000486  -24.561115    1.591697 C    809 MOH     0.1166 ****
5158 HC2   -10.146007  -24.683998    2.257085 H    809 MOH     0.0372 ****
5159 HC3   -11.472181  -25.536829    1.475732 H    809 MOH     0.0372 ****
5160 O1    -11.855541  -23.625818    2.153847 O    809 MOH    -0.6497 ****
5161 HO1   -11.670789  -23.624185    3.095714 H    809 MOH     0.4215 ****
5162 HC1   -11.341700  -28.839149    6.385174 H    810 MOH     0.0372 ****
5163 C1    -11.408095  -29.099611    7.441592 C    810 MOH     0.1166 ****
5164 HC2   -11.300130  -30.177795    7.565336 H    810 MOH     0.0372 ****
5165 HC3   -12.391900  -28.784852    7.790195 H    810 MOH     0.0372 ****
5166 O1    -10.424290  -28.380686    8.164962 O    810 MOH    -0.6497 ****
5167 HO1    -9.601566  -28.489689    7.682008 H    810 MOH     0.4215 ****
5168 HC1    -3.795154  -26.278208   11.233806 H    811 MOH     0.0372 ****
5169 C1     -3.357523  -27.181661   10.808834 C    811 MOH     0.1166 ****
5170 HC2    -3.113881  -26.986518    9.765145 H    811 MOH     0.0372 ****
5171 HC3    -4.063045  -28.007956   10.902173 H    811 MOH     0.0372 ****
5172 O1     -2.221298  -27.479274   11.556246 O    811 MOH    -0.6497 ****
5173 HO1    -1.593718  -26.753409   11.508163 H    811 MOH     0.4215 ****
5174 HC1    -7.015037  -33.476033   10.600945 H    812 MOH     0.0372 ****
5175 C1     -7.425533  -34.432559   10.924093 C    812 MOH     0.1166 ****
5176 HC2    -6.646687  -35.195167   10.945306 H    812 MOH     0.0372 ****
5177 HC3    -8.210729  -34.711392   10.221936 H    812 MOH     0.0372 ****
5178 O1     -8.021358  -34.288039   12.179914 O    812 MOH    -0.6497 ****
5179 HO1    -7.400707  -33.838966   12.758328 H    812 MOH     0.4215 ****
5180 HC1   -10.632136  -22.750534   -2.428205 H    813 MOH     0.0372 ****
5181 C1    -10.065756  -22.445573   -1.547857 C    813 MOH     0.1166 ****
5182 HC2    -9.680086  -23.339228   -1.056417 H    813 MOH     0.0372 ****
5183 HC3   -10.719893  -21.921790   -0.851357 H    813 MOH     0.0372 ****
5184 O1     -8.971099  -21.631117   -1.953029 O    813 MOH    -0.6497 ****
5185 HO1    -9.322128  -20.755833   -2.129806 H    813 MOH     0.4215 ****
5186 HC1    -1.814266  -28.492138    7.431692 H    814 MOH     0.0372 ****
5187 C1     -0.888773  -28.192484    7.925253 C    814 MOH     0.1166 ****
5188 HC2    -0.444791  -29.046539    8.437198 H    814 MOH     0.0372 ****
5189 HC3    -1.134724  -27.440490    8.674786 H    814 MOH     0.0372 ****
5190 O1     -0.006582  -27.693196    6.899241 O    814 MOH    -0.6497 ****
5191 HO1    -0.197107  -26.755042    6.824288 H    814 MOH     0.4215 ****
5192 HC1    -3.397360  -24.623169    2.779637 H    815 MOH     0.0372 ****
5193 C1     -2.451660  -24.280240    3.199658 C    815 MOH     0.1166 ****
5194 HC2    -2.565398  -23.305752    3.675541 H    815 MOH     0.0372 ****
5195 HC3    -1.721889  -24.166747    2.397799 H    815 MOH     0.0372 ****
5196 O1     -2.009987  -25.202473    4.171930 O    815 MOH    -0.6497 ****
5197 HO1    -1.178603  -25.590717    3.889795 H    815 MOH     0.4215 ****
5198 HC1    -3.479344  -32.688931   -2.149604 H    816 MOH     0.0372 ****
5199 C1     -2.697611  -32.015729   -2.501036 C    816 MOH     0.1166 ****
5200 HC2    -2.138159  -32.450514   -3.329059 H    816 MOH     0.0372 ****
5201 HC3    -2.012297  -31.810788   -1.679378 H    816 MOH     0.0372 ****
5202 O1     -3.271498  -30.816296   -2.946514 O    816 MOH    -0.6497 ****
5203 HO1    -3.076353  -30.172896   -2.260620 H    816 MOH     0.4215 ****
5204 HC1     1.420513   -9.948031   -1.878076 H    817 MOH     0.0372 ****
5205 C1      0.384169   -9.809227   -1.571191 C    817 MOH     0.1166 ****
5206 HC2    -0.179325   -9.445069   -2.429619 H    817 MOH     0.0372 ****
5207 HC3     0.314309   -9.059275   -0.782767 H    817 MOH     0.0372 ****
5208 O1     -0.141220  -11.051934   -1.153998 O    817 MOH    -0.6497 ****
5209 HO1    -0.903900  -10.899658   -0.591848 H    817 MOH     0.4215 ****
5210 HC1    -4.081058  -20.489002    2.213244 H    818 MOH     0.0372 ****
5211 C1     -4.881843  -20.882961    2.839034 C    818 MOH     0.1166 ****
5212 HC2    -5.447646  -21.613318    2.259913 H    818 MOH     0.0372 ****
5213 HC3    -5.554456  -20.106065    3.200365 H    818 MOH     0.0372 ****
5214 O1     -4.384744  -21.623932    3.883431 O    818 MOH    -0.6497 ****
5215 HO1    -3.840303  -21.027890    4.402447 H    818 MOH     0.4215 ****
5216 HC1     8.028286  -19.249968    6.719636 H    819 MOH     0.0372 ****
5217 C1      8.089485  -18.470214    7.477654 C    819 MOH     0.1166 ****
5218 HC2     8.449752  -18.916021    8.405379 H    819 MOH     0.0372 ****
5219 HC3     7.096443  -18.044819    7.623318 H    819 MOH     0.0372 ****
5220 O1      8.960707  -17.447552    7.049855 O    819 MOH    -0.6497 ****
5221 HO1     9.847517  -17.807627    6.983387 H    819 MOH     0.4215 ****
5222 HC1    14.286763  -14.500816    0.939038 H    820 MOH     0.0372 ****
5223 C1     14.720353  -14.307715    1.919795 C    820 MOH     0.1166 ****
5224 HC2    15.006142  -13.256883    1.970707 H    820 MOH     0.0372 ****
5225 HC3    15.608318  -14.927027    2.046367 H    820 MOH     0.0372 ****
5226 O1     13.765993  -14.622474    2.927422 O    820 MOH    -0.6497 ****
5227 HO1    13.966911  -15.514088    3.220165 H    820 MOH     0.4215 ****
5228 HC1     7.649545  -25.354505   -6.693473 H    821 MOH     0.0372 ****
5229 C1      7.462483  -26.340425   -6.268501 C    821 MOH     0.1166 ****
5230 HC2     7.070462  -26.245711   -5.255924 H    821 MOH     0.0372 ****
5231 HC3     8.419730  -26.856859   -6.199912 H    821 MOH     0.0372 ****
5232 O1      6.621284  -27.144266   -7.117737 O    821 MOH    -0.6497 ****
5233 HO1     5.905370  -27.490460   -6.580335 H    821 MOH     0.4215 ****
5234 HC1    10.279952  -24.882570   -0.056568 H    822 MOH     0.0372 ****
5235 C1      9.431248  -24.447786    0.471640 C    822 MOH     0.1166 ****
5236 HC2     9.294993  -23.420633    0.133643 H    822 MOH     0.0372 ****
5237 HC3     9.595792  -24.460033    1.549271 H    822 MOH     0.0372 ****
5238 O1      8.265577  -25.145890    0.137886 O    822 MOH    -0.6497 ****
5239 HO1     8.292713  -25.946465    0.667509 H    822 MOH     0.4215 ****
5240 HC1    18.356505  -16.112172   -3.676248 H    823 MOH     0.0372 ****
5241 C1     18.161938  -15.370793   -2.901259 C    823 MOH     0.1166 ****
5242 HC2    17.097882  -15.328744   -2.668621 H    823 MOH     0.0372 ****
5243 HC3    18.463315  -14.382424   -3.248448 H    823 MOH     0.0372 ****
5244 O1     18.831665  -15.701066   -1.689985 O    823 MOH    -0.6497 ****
5245 HO1    18.614004  -16.595538   -1.417749 H    823 MOH     0.4215 ****
5246 HC1     2.470135  -11.399354    2.790951 H    824 MOH     0.0372 ****
5247 C1      3.074044  -10.847810    3.511492 C    824 MOH     0.1166 ****
5248 HC2     3.885798  -11.483045    3.865046 H    824 MOH     0.0372 ****
5249 HC3     2.425679  -10.562036    4.340222 H    824 MOH     0.0372 ****
5250 O1      3.578648   -9.723903    2.856004 O    824 MOH    -0.6497 ****
5251 HO1     4.391557   -9.462216    3.295118 H    824 MOH     0.4215 ****
5252 HC1     9.174327  -17.806811   -9.670392 H    825 MOH     0.0372 ****
5253 C1      8.382202  -18.339166   -9.144305 C    825 MOH     0.1166 ****
5254 HC2     8.409338  -18.081562   -8.085766 H    825 MOH     0.0372 ****
5255 HC3     8.547902  -19.406736   -9.286433 H    825 MOH     0.0372 ****
5256 O1      7.153601  -17.923570   -9.700091 O    825 MOH    -0.6497 ****
5257 HO1     6.459048  -18.282420   -9.142183 H    825 MOH     0.4215 ****
5258 HC1     9.870611   -9.915780  -10.789742 H    826 MOH     0.0372 ****
5259 C1     10.408124   -9.573259  -11.674333 C    826 MOH     0.1166 ****
5260 HC2    10.080189  -10.147256  -12.541246 H    826 MOH     0.0372 ****
5261 HC3    11.467562   -9.757787  -11.496142 H    826 MOH     0.0372 ****
5262 O1     10.147739   -8.192563  -11.943033 O    826 MOH    -0.6497 ****
5263 HO1    10.406970   -7.987623  -12.843887 H    826 MOH     0.4215 ****
5264 HC1     0.531970  -16.720870    7.175720 H    827 MOH     0.0372 ****
5265 C1     -0.488207  -17.013584    7.423914 C    827 MOH     0.1166 ****
5266 HC2    -0.649288  -16.956021    8.499424 H    827 MOH     0.0372 ****
5267 HC3    -0.696631  -18.035838    7.107130 H    827 MOH     0.0372 ****
5268 O1     -1.374440  -16.121153    6.822873 O    827 MOH    -0.6497 ****
5269 HO1    -0.922952  -15.744748    6.063441 H    827 MOH     0.4215 ****
5270 HC1    13.239450  -11.747998   -2.147483 H    828 MOH     0.0372 ****
5271 C1     13.287947  -12.835571   -2.198395 C    828 MOH     0.1166 ****
5272 HC2    12.909783  -13.190339   -3.156524 H    828 MOH     0.0372 ****
5273 HC3    12.681152  -13.282195   -1.410678 H    828 MOH     0.0372 ****
5274 O1     14.624513  -13.269947   -2.124856 O    828 MOH    -0.6497 ****
5275 HO1    14.592182  -14.229331   -2.103642 H    828 MOH     0.4215 ****
5276 HC1     4.329203  -12.772701   -7.720899 H    829 MOH     0.0372 ****
5277 C1      4.374814  -13.227490   -8.710848 C    829 MOH     0.1166 ****
5278 HC2     5.292224  -13.806386   -8.819743 H    829 MOH     0.0372 ****
5279 HC3     4.364422  -12.449777   -9.473817 H    829 MOH     0.0372 ****
5280 O1      3.271498  -14.063990   -8.927930 O    829 MOH    -0.6497 ****
5281 HO1     3.530728  -14.951522   -8.670543 H    829 MOH     0.4215 ****
5282 HC1    12.436356  -17.329568   -9.225622 H    830 MOH     0.0372 ****
5283 C1     12.634964  -16.368960   -8.751153 C    830 MOH     0.1166 ****
5284 HC2    13.699598  -16.151772   -8.834592 H    830 MOH     0.0372 ****
5285 HC3    12.405756  -16.404070   -7.686250 H    830 MOH     0.0372 ****
5286 O1     11.841685  -15.373243   -9.402399 O    830 MOH    -0.6497 ****
5287 HO1    11.889028  -14.597163   -8.838835 H    830 MOH     0.4215 ****
5288 HC1    -4.869141  -13.934167    3.379970 H    831 MOH     0.0372 ****
5289 C1     -3.828756  -13.906815    3.053994 C    831 MOH     0.1166 ****
5290 HC2    -3.244478  -14.546540    3.716553 H    831 MOH     0.0372 ****
5291 HC3    -3.487542  -12.873130    3.107734 H    831 MOH     0.0372 ****
5292 O1     -3.761783  -14.388956    1.730997 O    831 MOH    -0.6497 ****
5293 HO1    -4.356454  -15.141766    1.687157 H    831 MOH     0.4215 ****
5294 HC1    11.277614  -22.796830   -4.213649 H    832 MOH     0.0372 ****
5295 C1     11.324957  -22.073414   -3.399062 C    832 MOH     0.1166 ****
5296 HC2    10.531677  -21.345915   -3.570182 H    832 MOH     0.0372 ****
5297 HC3    12.285667  -21.559837   -3.445731 H    832 MOH     0.0372 ****
5298 O1     11.139627  -22.715180   -2.105057 O    832 MOH    -0.6497 ****
5299 HO1    10.947947  -22.039529   -1.449569 H    832 MOH     0.4215 ****
5300 HC1    -7.646196  -15.016434    2.079601 H    833 MOH     0.0372 ****
5301 C1     -8.080941  -15.901924    2.542756 C    833 MOH     0.1166 ****
5302 HC2    -8.493169  -16.576759    1.792516 H    833 MOH     0.0372 ****
5303 HC3    -8.903088  -15.615742    3.199658 H    833 MOH     0.0372 ****
5304 O1     -7.175656  -16.604519    3.338251 O    833 MOH    -0.6497 ****
5305 HO1    -7.702199  -17.322220    3.698876 H    833 MOH     0.4215 ****
5306 HC1    18.035499  -14.082361    0.105359 H    834 MOH     0.0372 ****
5307 C1     18.118060  -13.142574    0.651246 C    834 MOH     0.1166 ****
5308 HC2    17.291294  -12.486927    0.378302 H    834 MOH     0.0372 ****
5309 HC3    19.075306  -12.680437    0.406587 H    834 MOH     0.0372 ****
5310 O1     18.077068  -13.500608    1.992627 O    834 MOH    -0.6497 ****
5311 HO1    18.301080  -12.757596    2.556898 H    834 MOH     0.4215 ****
5312 HC1     6.017375  -20.112189    8.798530 H    835 MOH     0.0372 ****
5313 C1      6.317020  -21.159346    8.783681 C    835 MOH     0.1166 ****
5314 HC2     6.950951  -21.347956    7.916768 H    835 MOH     0.0372 ****
5315 HC3     5.449263  -21.813359    8.704485 H    835 MOH     0.0372 ****
5316 O1      7.021965  -21.470431    9.977277 O    835 MOH    -0.6497 ****
5317 HO1     7.456132  -22.318771    9.858483 H    835 MOH     0.4215 ****
5318 HC1    -3.290088  -23.616592   -9.557962 H    836 MOH     0.0372 ****
5319 C1     -2.877283  -22.609035   -9.594732 C    836 MOH     0.1166 ****
5320 HC2    -2.962731  -22.138325   -8.615389 H    836 MOH     0.0372 ****
5321 HC3    -3.454056  -22.021158  -10.308910 H    836 MOH     0.0372 ****
5322 O1     -1.537830  -22.664557  -10.026067 O    836 MOH    -0.6497 ****
5323 HO1    -1.504344  -23.325103  -10.721860 H    836 MOH     0.4215 ****
5324 HC1    12.823180  -25.459833   -3.609073 H    837 MOH     0.0372 ****
5325 C1     12.143062  -26.028523   -2.974798 C    837 MOH     0.1166 ****
5326 HC2    12.497555  -25.991372   -1.944543 H    837 MOH     0.0372 ****
5327 HC3    12.088214  -27.065065   -3.306431 H    837 MOH     0.0372 ****
5328 O1     10.910419  -25.405536   -3.056822 O    837 MOH    -0.6497 ****
5329 HO1    11.012610  -24.512697   -2.720947 H    837 MOH     0.4215 ****
5330 HC1     6.691143  -18.996446    1.374616 H    838 MOH     0.0372 ****
5331 C1      6.550847  -19.150764    0.305470 C    838 MOH     0.1166 ****
5332 HC2     6.354548  -18.196280   -0.183848 H    838 MOH     0.0372 ****
5333 HC3     5.716576  -19.829681    0.129401 H    838 MOH     0.0372 ****
5334 O1      7.726332  -19.705165   -0.246073 O    838 MOH    -0.6497 ****
5335 HO1     8.372965  -19.806003    0.456084 H    838 MOH     0.4215 ****
5336 HC1     9.454342  -10.960079    2.665086 H    839 MOH     0.0372 ****
5337 C1      9.937006  -11.925994    2.518007 C    839 MOH     0.1166 ****
5338 HC2     9.163934  -12.680029    2.370222 H    839 MOH     0.0372 ****
5339 HC3    10.501655  -12.168493    3.417447 H    839 MOH     0.0372 ****
5340 O1     10.845178  -11.898233    1.395122 O    839 MOH    -0.6497 ****
5341 HO1    11.556474  -11.294026    1.624224 H    839 MOH     0.4215 ****
5342 HC1     4.147338  -19.202612   -5.994144 H    840 MOH     0.0372 ****
5343 C1      3.986257  -20.215476   -5.625741 C    840 MOH     0.1166 ****
5344 HC2     3.235125  -20.170568   -4.838024 H    840 MOH     0.0372 ****
5345 HC3     4.911172  -20.615967   -5.210670 H    840 MOH     0.0372 ****
5346 O1      3.534769  -21.062183   -6.682159 O    840 MOH    -0.6497 ****
5347 HO1     3.939492  -21.920320   -6.532252 H    840 MOH     0.4215 ****
5348 HC1    13.152847  -25.085469    1.619982 H    841 MOH     0.0372 ****
5349 C1     12.986571  -24.998513    2.694077 C    841 MOH     0.1166 ****
5350 HC2    13.058739  -23.942374    2.953585 H    841 MOH     0.0372 ****
5351 HC3    13.773499  -25.552505    3.206730 H    841 MOH     0.0372 ****
5352 O1     11.660974  -25.517396    2.928129 O    841 MOH    -0.6497 ****
5353 HO1    11.349782  -25.168752    3.766758 H    841 MOH     0.4215 ****
5354 HC1    12.018931   -7.688377   10.801056 H    842 MOH     0.0372 ****
5355 C1     11.307636   -8.514263   10.790450 C    842 MOH     0.1166 ****
5356 HC2    11.669634   -9.245436   10.067079 H    842 MOH     0.0372 ****
5357 HC3    10.318635   -8.141941   10.520335 H    842 MOH     0.0372 ****
5358 O1     11.244127   -9.087852   12.075263 O    842 MOH    -0.6497 ****
5359 HO1    10.968154   -8.404036   12.689738 H    842 MOH     0.4215 ****
5360 HC1     7.948612   -6.158670   -6.206983 H    843 MOH     0.0372 ****
5361 C1      7.367798   -5.777367   -5.366940 C    843 MOH     0.1166 ****
5362 HC2     7.665133   -4.770218   -5.074905 H    843 MOH     0.0372 ****
5363 HC3     7.575644   -6.432605   -4.520534 H    843 MOH     0.0372 ****
5364 O1      5.988508   -5.821049   -5.651904 O    843 MOH    -0.6497 ****
5365 HO1     5.583208   -6.495884   -5.102482 H    843 MOH     0.4215 ****
5366 HC1    -3.473686  -16.515521    4.818933 H    844 MOH     0.0372 ****
5367 C1     -3.865129  -17.284661    4.154252 C    844 MOH     0.1166 ****
5368 HC2    -3.365721  -17.250776    3.186223 H    844 MOH     0.0372 ****
5369 HC3    -4.936691  -17.122178    4.029802 H    844 MOH     0.0372 ****
5370 O1     -3.724256  -18.551455    4.739030 O    844 MOH    -0.6497 ****
5371 HO1    -4.170547  -18.551864    5.588265 H    844 MOH     0.4215 ****
5372 HC1    12.746393  -18.947456    0.438406 H    845 MOH     0.0372 ****
5373 C1     12.729650  -19.954605    0.020506 C    845 MOH     0.1166 ****
5374 HC2    13.231367  -20.613109    0.728320 H    845 MOH     0.0372 ****
5375 HC3    13.281019  -19.983182   -0.919946 H    845 MOH     0.0372 ****
5376 O1     11.386733  -20.390206   -0.128693 O    845 MOH    -0.6497 ****
5377 HO1    10.894831  -20.129335    0.654074 H    845 MOH     0.4215 ****
5378 HC1     6.881091  -15.156463   -0.429921 H    846 MOH     0.0372 ****
5379 C1      5.817612  -14.955605   -0.561443 C    846 MOH     0.1166 ****
5380 HC2     5.235643  -15.876613   -0.534573 H    846 MOH     0.0372 ****
5381 HC3     5.652490  -14.484894   -1.530886 H    846 MOH     0.0372 ****
5382 O1      5.367279  -14.065215    0.417900 O    846 MOH    -0.6497 ****
5383 HO1     5.477553  -13.170743    0.087681 H    846 MOH     0.4215 ****
5384 HC1    10.594031  -12.228914   -3.226528 H    847 MOH     0.0372 ****
5385 C1     10.189886  -11.883128   -4.177587 C    847 MOH     0.1166 ****
5386 HC2     9.256888  -12.406502   -4.389719 H    847 MOH     0.0372 ****
5387 HC3    10.910996  -12.028056   -4.981567 H    847 MOH     0.0372 ****
5388 O1      9.943357  -10.517129   -4.023437 O    847 MOH    -0.6497 ****
5389 HO1    10.767813  -10.061524   -3.835347 H    847 MOH     0.4215 ****
5390 HC1     6.361476  -23.484728    1.977071 H    848 MOH     0.0372 ****
5391 C1      6.175569  -22.898892    1.076924 C    848 MOH     0.1166 ****
5392 HC2     6.193467  -23.522695    0.183141 H    848 MOH     0.0372 ****
5393 HC3     6.923238  -22.113422    0.968029 H    848 MOH     0.0372 ****
5394 O1      4.933112  -22.310606    1.206324 O    848 MOH    -0.6497 ****
5395 HO1     4.634622  -22.199970    0.300521 H    848 MOH     0.4215 ****
5396 HC1     7.546199  -19.909698    3.396234 H    849 MOH     0.0372 ****
5397 C1      8.300218  -20.663324    3.168546 C    849 MOH     0.1166 ****
5398 HC2     7.814089  -21.552897    2.769030 H    849 MOH     0.0372 ****
5399 HC3     8.789234  -20.952772    4.098391 H    849 MOH     0.0372 ****
5400 O1      9.234371  -20.121170    2.223851 O    849 MOH    -0.6497 ****
5401 HO1     9.450877  -19.223432    2.483359 H    849 MOH     0.4215 ****
5402 HC1     5.791632  -11.556938   -5.690088 H    850 MOH     0.0372 ****
5403 C1      5.554341  -11.843528   -4.664783 C    850 MOH     0.1166 ****
5404 HC2     6.316443  -12.506115   -4.255368 H    850 MOH     0.0372 ****
5405 HC3     4.601135  -12.372209   -4.683875 H    850 MOH     0.0372 ****
5406 O1      5.452727  -10.717171   -3.826862 O    850 MOH    -0.6497 ****
5407 HO1     6.226376  -10.160728   -3.946363 H    850 MOH     0.4215 ****
5408 HC1     3.482808  -26.539242    0.661852 H    851 MOH     0.0372 ****
5409 C1      3.075776  -25.538625    0.516895 C    851 MOH     0.1166 ****
5410 HC2     2.030194  -25.584349    0.211425 H    851 MOH     0.0372 ****
5411 HC3     3.632341  -25.080979   -0.299813 H    851 MOH     0.0372 ****
5412 O1      3.230506  -24.714780    1.673722 O    851 MOH    -0.6497 ****
5413 HO1     3.513407  -23.834597    1.413507 H    851 MOH     0.4215 ****
5414 HC1     2.888714  -22.133834    2.884289 H    852 MOH     0.0372 ****
5415 C1      2.977049  -21.147915    3.340373 C    852 MOH     0.1166 ****
5416 HC2     2.376027  -21.116071    4.248298 H    852 MOH     0.0372 ****
5417 HC3     2.624865  -20.412659    2.617002 H    852 MOH     0.0372 ****
5418 O1      4.317079  -20.944199    3.647964 O    852 MOH    -0.6497 ****
5419 HO1     4.802053  -21.410827    2.964192 H    852 MOH     0.4215 ****
5420 HC1    12.833573  -10.341582   -4.893179 H    853 MOH     0.0372 ****
5421 C1     13.253884   -9.458133   -4.412346 C    853 MOH     0.1166 ****
5422 HC2    13.507341   -8.716346   -5.169657 H    853 MOH     0.0372 ****
5423 HC3    14.140694   -9.741049   -3.845954 H    853 MOH     0.0372 ****
5424 O1     12.248717   -8.961703   -3.589274 O    853 MOH    -0.6497 ****
5425 HO1    12.604942   -8.765336   -2.720240 H    853 MOH     0.4215 ****
5426 HC1     7.184778   -8.033755    7.682715 H    854 MOH     0.0372 ****
5427 C1      7.142054   -7.159695    7.032884 C    854 MOH     0.1166 ****
5428 HC2     7.942839   -6.459549    7.271179 H    854 MOH     0.0372 ****
5429 HC3     6.202705   -6.643669    7.228046 H    854 MOH     0.0372 ****
5430 O1      7.142631   -7.514055    5.641298 O    854 MOH    -0.6497 ****
5431 HO1     7.251750   -6.721645    5.110261 H    854 MOH     0.4215 ****
5432 HC1     4.852283  -26.971168    3.698169 H    855 MOH     0.0372 ****
5433 C1      5.928463  -26.963003    3.528463 C    855 MOH     0.1166 ****
5434 HC2     6.348774  -26.102824    4.048187 H    855 MOH     0.0372 ****
5435 HC3     6.132268  -26.902583    2.459318 H    855 MOH     0.0372 ****
5436 O1      6.521980  -28.107731    4.029095 O    855 MOH    -0.6497 ****
5437 HO1     6.060099  -28.369010    4.828125 H    855 MOH     0.4215 ****
5438 HC1     1.498455  -12.303215   -3.703118 H    856 MOH     0.0372 ****
5439 C1      0.915908  -13.176050   -3.407547 C    856 MOH     0.1166 ****
5440 HC2     1.251926  -14.090935   -3.894744 H    856 MOH     0.0372 ****
5441 HC3    -0.104269  -12.996013   -3.744837 H    856 MOH     0.0372 ****
5442 O1      0.908980  -13.323020   -2.004648 O    856 MOH    -0.6497 ****
5443 HO1     0.722496  -12.461208   -1.623517 H    856 MOH     0.4215 ****
5444 HC1     0.667648  -15.317721    0.567807 H    857 MOH     0.0372 ****
5445 C1      1.699373  -15.601453    0.362039 C    857 MOH     0.1166 ****
5446 HC2     1.970150  -16.427340    1.018941 H    857 MOH     0.0372 ****
5447 HC3     2.347737  -14.750664    0.572757 H    857 MOH     0.0372 ****
5448 O1      1.837360  -15.920704   -0.999849 O    857 MOH    -0.6497 ****
5449 HO1     1.540601  -15.127885   -1.452397 H    857 MOH     0.4215 ****
5450 HC1     6.161713  -16.045219   -5.118746 H    858 MOH     0.0372 ****
5451 C1      6.176147  -15.337725   -5.948182 C    858 MOH     0.1166 ****
5452 HC2     5.185414  -14.906615   -6.089603 H    858 MOH     0.0372 ****
5453 HC3     6.515051  -15.830889   -6.858936 H    858 MOH     0.0372 ****
5454 O1      7.053142  -14.286077   -5.641298 O    858 MOH    -0.6497 ****
5455 HO1     7.249441  -14.279137   -4.701553 H    858 MOH     0.4215 ****
5456 HC1    12.293173  -19.879895    8.210924 H    859 MOH     0.0372 ****
5457 C1     12.368228  -18.838046    7.901211 C    859 MOH     0.1166 ****
5458 HC2    13.406881  -18.613509    7.657967 H    859 MOH     0.0372 ****
5459 HC3    12.006230  -18.236696    8.736305 H    859 MOH     0.0372 ****
5460 O1     11.480264  -18.680462    6.824995 O    859 MOH    -0.6497 ****
5461 HO1    11.847458  -19.200979    6.107282 H    859 MOH     0.4215 ****
5462 HC1     2.018070  -23.792547    8.759639 H    860 MOH     0.0372 ****
5463 C1      3.010535  -23.771726    8.309212 C    860 MOH     0.1166 ****
5464 HC2     3.533615  -22.860516    8.599126 H    860 MOH     0.0372 ****
5465 HC3     2.950491  -23.827248    7.223096 H    860 MOH     0.0372 ****
5466 O1      3.745502  -24.836438    8.757518 O    860 MOH    -0.6497 ****
5467 HO1     3.298633  -25.632522    8.461947 H    860 MOH     0.4215 ****
5468 HC1    -0.041916  -11.563061    1.764939 H    861 MOH     0.0372 ****
5469 C1     -0.281516  -12.195846    2.619124 C    861 MOH     0.1166 ****
5470 HC2    -1.327097  -12.071330    2.899845 H    861 MOH     0.0372 ****
5471 HC3     0.350683  -11.888435    3.452802 H    861 MOH     0.0372 ****
5472 O1      0.020438  -13.545923    2.303047 O    861 MOH    -0.6497 ****
5473 HO1    -0.442019  -13.819041    1.507552 H    861 MOH     0.4215 ****
5474 HC1    -2.635373  -19.501449   -7.334819 H    862 MOH     0.0372 ****
5475 C1     -1.847290  -19.467156   -8.087180 C    862 MOH     0.1166 ****
5476 HC2    -2.267601  -19.075646   -9.014197 H    862 MOH     0.0372 ****
5477 HC3    -1.449496  -20.464915   -8.273856 H    862 MOH     0.0372 ****
5478 O1     -0.840968  -18.566969   -7.737162 O    862 MOH    -0.6497 ****
5479 HO1    -0.013625  -19.031964   -7.880705 H    862 MOH     0.4215 ****
5480 HC1     0.568344  -20.121987  -10.052937 H    863 MOH     0.0372 ****
5481 C1      0.998470  -20.691901   -9.228450 C    863 MOH     0.1166 ****
5482 HC2     1.773851  -21.335709   -9.643522 H    863 MOH     0.0372 ****
5483 HC3     0.253110  -21.340608   -8.768124 H    863 MOH     0.0372 ****
5484 O1      1.567737  -19.797429   -8.288706 O    863 MOH    -0.6497 ****
5485 HO1     1.982274  -20.336725   -7.612004 H    863 MOH     0.4215 ****
5486 HC1    10.915615  -11.406702   -7.767568 H    864 MOH     0.0372 ****
5487 C1     11.659242  -11.927627   -8.370023 C    864 MOH     0.1166 ****
5488 HC2    12.574920  -11.338117   -8.418106 H    864 MOH     0.0372 ****
5489 HC3    11.323225  -12.048877   -9.400277 H    864 MOH     0.0372 ****
5490 O1     11.997570  -13.156454   -7.785953 O    864 MOH    -0.6497 ****
5491 HO1    11.293780  -13.427940   -7.192690 H    864 MOH     0.4215 ****
5492 HC1    11.631529  -17.083803   -3.107734 H    865 MOH     0.0372 ****
5493 C1     11.592270  -18.153413   -3.312795 C    865 MOH     0.1166 ****
5494 HC2    10.814002  -18.581666   -2.681349 H    865 MOH     0.0372 ****
5495 HC3    12.561063  -18.589831   -3.068843 H    865 MOH     0.0372 ****
5496 O1     11.303595  -18.445311   -4.681047 O    865 MOH    -0.6497 ****
5497 HO1    11.733143  -19.259766   -4.953283 H    865 MOH     0.4215 ****
5498 HC1    15.793070  -18.403670   -5.354212 H    866 MOH     0.0372 ****
5499 C1     15.270568  -17.474497   -5.126524 C    866 MOH     0.1166 ****
5500 HC2    14.238266  -17.687602   -4.847924 H    866 MOH     0.0372 ****
5501 HC3    15.310983  -16.828240   -6.002629 H    866 MOH     0.0372 ****
5502 O1     15.958192  -16.911114   -4.060207 O    866 MOH    -0.6497 ****
5503 HO1    16.420650  -17.626365   -3.617558 H    866 MOH     0.4215 ****
5504 HC1     9.193379  -23.189564    4.285774 H    867 MOH     0.0372 ****
5505 C1      9.444527  -23.710081    5.209963 C    867 MOH     0.1166 ****
5506 HC2     8.777687  -24.563728    5.330878 H    867 MOH     0.0372 ****
5507 HC3     9.321551  -23.040145    6.060612 H    867 MOH     0.0372 ****
5508 O1     10.784557  -24.140783    5.113089 O    867 MOH    -0.6497 ****
5509 HO1    10.974505  -24.696409    5.871815 H    867 MOH     0.4215 ****
5510 HC1    10.666200  -16.259141   -5.735343 H    868 MOH     0.0372 ****
5511 C1      9.729160  -16.003170   -6.228196 C    868 MOH     0.1166 ****
5512 HC2     8.890848  -16.335076   -5.615135 H    868 MOH     0.0372 ****
5513 HC3     9.710685  -16.502049   -7.196933 H    868 MOH     0.0372 ****
5514 O1      9.698561  -14.619616   -6.445278 O    868 MOH    -0.6497 ****
5515 HO1     8.782306  -14.378342   -6.597306 H    868 MOH     0.4215 ****
5516 HC1     0.719609  -16.961328    3.506543 H    869 MOH     0.0372 ****
5517 C1     -0.290176  -16.562062    3.598467 C    869 MOH     0.1166 ****
5518 HC2    -0.902745  -17.303440    4.111826 H    869 MOH     0.0372 ****
5519 HC3    -0.691435  -16.370185    2.602860 H    869 MOH     0.0372 ****
5520 O1     -0.222049  -15.373243    4.360728 O    869 MOH    -0.6497 ****
5521 HO1     0.112237  -14.680037    3.786557 H    869 MOH     0.4215 ****
5522 HC1     7.336621  -20.969102   -7.443006 H    870 MOH     0.0372 ****
5523 C1      7.642039  -21.949306   -7.809994 C    870 MOH     0.1166 ****
5524 HC2     8.591203  -21.869698   -8.339617 H    870 MOH     0.0372 ****
5525 HC3     6.875318  -22.341633   -8.476796 H    870 MOH     0.0372 ****
5526 O1      7.795614  -22.869906   -6.735899 O    870 MOH    -0.6497 ****
5527 HO1     8.644897  -23.303874   -6.844086 H    870 MOH     0.4215 ****
5528 HC1    13.177673  -23.617409   -0.770039 H    871 MOH     0.0372 ****
5529 C1     14.048895  -23.114038   -1.189353 C    871 MOH     0.1166 ****
5530 HC2    13.750982  -22.164861   -1.632709 H    871 MOH     0.0372 ****
5531 HC3    14.487681  -23.725594   -1.978484 H    871 MOH     0.0372 ****
5532 O1     15.017689  -22.838879   -0.203646 O    871 MOH    -0.6497 ****
5533 HO1    15.447815  -23.677013   -0.020506 H    871 MOH     0.4215 ****
5534 HC1    -3.536617   -9.725127    1.930402 H    872 MOH     0.0372 ****
5535 C1     -2.674056   -9.262174    1.450983 C    872 MOH     0.1166 ****
5536 HC2    -1.887127   -9.147456    2.196981 H    872 MOH     0.0372 ****
5537 HC3    -2.991021   -8.270131    1.128542 H    872 MOH     0.0372 ****
5538 O1     -2.291272  -10.049685    0.292035 O    872 MOH    -0.6497 ****
5539 HO1    -2.985247  -10.003553   -0.369110 H    872 MOH     0.4215 ****
5540 HC1     3.149677  -14.287710    8.191125 H    873 MOH     0.0372 ****
5541 C1      3.757626  -13.416917    7.942931 C    873 MOH     0.1166 ****
5542 HC2     4.807249  -13.686361    7.828379 H    873 MOH     0.0372 ****
5543 HC3     3.701046  -12.694725    8.758225 H    873 MOH     0.0372 ****
5544 O1      3.362719  -12.854759    6.733071 O    873 MOH    -0.6497 ****
5545 HO1     3.644466  -13.453251    6.037278 H    873 MOH     0.4215 ****
5546 HC1     4.622497  -17.293643  -12.517911 H    874 MOH     0.0372 ****
5547 C1      5.546258  -17.105440  -13.065919 C    874 MOH     0.1166 ****
5548 HC2     6.136887  -18.020325  -13.028442 H    874 MOH     0.0372 ****
5549 HC3     6.068760  -16.282003  -12.578722 H    874 MOH     0.0372 ****
5550 O1      5.273171  -16.753122  -14.420028 O    874 MOH    -0.6497 ****
5551 HO1     6.054903  -16.330993  -14.783481 H    874 MOH     0.4215 ****
5552 HC1     8.730344   -8.037837   -2.496794 H    875 MOH     0.0372 ****
5553 C1      7.715363   -8.421182   -2.600739 C    875 MOH     0.1166 ****
5554 HC2     6.994252   -7.603869   -2.579525 H    875 MOH     0.0372 ****
5555 HC3     7.480381   -9.116021   -1.794637 H    875 MOH     0.0372 ****
5556 O1      7.587768   -9.133167   -3.783021 O    875 MOH    -0.6497 ****
5557 HO1     8.308301   -9.766361   -3.814841 H    875 MOH     0.4215 ****
5558 HC1     8.263845  -22.371843   -2.423962 H    876 MOH     0.0372 ****
5559 C1      7.765592  -23.147515   -3.003789 C    876 MOH     0.1166 ****
5560 HC2     8.492476  -23.892976   -3.326230 H    876 MOH     0.0372 ****
5561 HC3     7.303135  -22.673539   -3.869995 H    876 MOH     0.0372 ****
5562 O1      6.790447  -23.778258   -2.206880 O    876 MOH    -0.6497 ****
5563 HO1     7.262143  -24.147315   -1.457347 H    876 MOH     0.4215 ****
5564 HC1    11.604394  -16.319970    4.763071 H    877 MOH     0.0372 ****
5565 C1     10.982010  -15.425498    4.753879 C    877 MOH     0.1166 ****
5566 HC2    11.425993  -14.638396    5.363405 H    877 MOH     0.0372 ****
5567 HC3    10.010330  -15.703515    5.163294 H    877 MOH     0.0372 ****
5568 O1     10.802454  -14.972751    3.432297 O    877 MOH    -0.6497 ****
5569 HO1    11.659820  -14.697183    3.099249 H    877 MOH     0.4215 ****
5570 HC1     7.588346  -10.673080   -6.717514 H    878 MOH     0.0372 ****
5571 C1      8.181284  -11.011518   -7.566750 C    878 MOH     0.1166 ****
5572 HC2     8.548479  -12.007235   -7.318555 H    878 MOH     0.0372 ****
5573 HC3     9.028257  -10.341582   -7.718777 H    878 MOH     0.0372 ****
5574 O1      7.377035  -11.062549   -8.737011 O    878 MOH    -0.6497 ****
5575 HO1     7.784067  -11.712888   -9.314717 H    878 MOH     0.4215 ****
5576 HC1     3.344821  -10.352197   -1.055003 H    879 MOH     0.0372 ****
5577 C1      3.526109  -11.390372   -0.775696 C    879 MOH     0.1166 ****
5578 HC2     2.866775  -12.027648   -1.364716 H    879 MOH     0.0372 ****
5579 HC3     3.301520  -11.545098    0.280014 H    879 MOH     0.0372 ****
5580 O1      4.856324  -11.785965   -1.016819 O    879 MOH    -0.6497 ****
5581 HO1     5.035880  -11.677779   -1.953736 H    879 MOH     0.4215 ****
5582 HC1     7.233275  -16.140341    2.603567 H    880 MOH     0.0372 ****
5583 C1      7.687072  -15.260974    3.060358 C    880 MOH     0.1166 ****
5584 HC2     8.524230  -14.944174    2.438104 H    880 MOH     0.0372 ****
5585 HC3     7.990759  -15.510006    4.077178 H    880 MOH     0.0372 ****
5586 O1      6.736754  -14.263215    3.025003 O    880 MOH    -0.6497 ****
5587 HO1     6.408819  -14.207694    2.124149 H    880 MOH     0.4215 ****
5588 HC1    14.596223  -12.821282    7.980407 H    881 MOH     0.0372 ****
5589 C1     14.343344  -11.956613    8.594176 C    881 MOH     0.1166 ****
5590 HC2    15.151057  -11.773309    9.301990 H    881 MOH     0.0372 ****
5591 HC3    13.425357  -12.189314    9.132991 H    881 MOH     0.0372 ****
5592 O1     14.151086  -10.848218    7.737870 O    881 MOH    -0.6497 ****
5593 HO1    13.465771  -11.119295    7.122687 H    881 MOH     0.4215 ****
5594 HC1    10.855571  -20.080754    4.446288 H    882 MOH     0.0372 ****
5595 C1     11.678295  -20.771510    4.261026 C    882 MOH     0.1166 ****
5596 HC2    11.953691  -20.650260    3.213801 H    882 MOH     0.0372 ****
5597 HC3    11.369990  -21.811318    4.367799 H    882 MOH     0.0372 ****
5598 O1     12.768332  -20.460833    5.145616 O    882 MOH    -0.6497 ****
5599 HO1    13.379169  -21.201395    5.158344 H    882 MOH     0.4215 ****
5600 HC1     6.602809  -18.739250   -4.748929 H    883 MOH     0.0372 ****
5601 C1      7.530033  -18.916021   -4.205164 C    883 MOH     0.1166 ****
5602 HC2     7.464215  -19.840704   -3.631700 H    883 MOH     0.0372 ****
5603 HC3     7.753468  -18.079521   -3.542605 H    883 MOH     0.0372 ****
5604 O1      8.533468  -19.018083   -5.135716 O    883 MOH    -0.6497 ****
5605 HO1     9.343490  -18.677196   -4.748929 H    883 MOH     0.4215 ****
5606 HC1     4.505873  -18.595138  -10.021824 H    884 MOH     0.0372 ****
5607 C1      4.785887  -19.503491   -9.487959 C    884 MOH     0.1166 ****
5608 HC2     5.594178  -19.999104  -10.025360 H    884 MOH     0.0372 ****
5609 HC3     3.955080  -20.209352   -9.464624 H    884 MOH     0.0372 ****
5610 O1      5.223519  -19.242212   -8.168497 O    884 MOH    -0.6497 ****
5611 HO1     4.875954  -19.946848   -7.616954 H    884 MOH     0.4215 ****
5612 HC1    15.689724  -19.123003    3.381385 H    885 MOH     0.0372 ****
5613 C1     14.858340  -18.439595    3.211679 C    885 MOH     0.1166 ****
5614 HC2    13.936312  -18.899691    3.568768 H    885 MOH     0.0372 ****
5615 HC3    14.787903  -18.251393    2.140412 H    885 MOH     0.0372 ****
5616 O1     15.186275  -17.218933    3.863632 O    885 MOH    -0.6497 ****
5617 HO1    15.799421  -17.416117    4.575688 H    885 MOH     0.4215 ****
5618 HC1     8.196295  -16.893559   11.864545 H    886 MOH     0.0372 ****
5619 C1      7.304866  -16.266898   11.832725 C    886 MOH     0.1166 ****
5620 HC2     6.416324  -16.897642   11.792420 H    886 MOH     0.0372 ****
5621 HC3     7.314104  -15.648810   10.934699 H    886 MOH     0.0372 ****
5622 O1      7.315259  -15.419375   12.954196 O    886 MOH    -0.6497 ****
5623 HO1     8.071010  -14.839254   12.837524 H    886 MOH     0.4215 ****
5624 HC1    15.449547  -16.296700   -0.596091 H    887 MOH     0.0372 ****
5625 C1     14.439761  -16.617583   -0.852063 C    887 MOH     0.1166 ****
5626 HC2    13.742322  -16.186881   -0.132936 H    887 MOH     0.0372 ****
5627 HC3    14.358355  -17.703932   -0.817415 H    887 MOH     0.0372 ****
5628 O1     14.084691  -16.158304   -2.124149 O    887 MOH    -0.6497 ****
5629 HO1    14.683403  -16.565736   -2.753474 H    887 MOH     0.4215 ****
5630 HC1     9.853291  -15.631664   10.451038 H    888 MOH     0.0372 ****
5631 C1     10.077880  -14.565727   10.501243 C    888 MOH     0.1166 ****
5632 HC2     9.718768  -14.017858    9.630087 H    888 MOH     0.0372 ****
5633 HC3    11.163876  -14.519187   10.429118 H    888 MOH     0.0372 ****
5634 O1      9.717036  -13.967644   11.767671 O    888 MOH    -0.6497 ****
5635 HO1     9.644867  -13.018875   11.641806 H    888 MOH     0.4215 ****
5636 HC1     8.939922  -29.082628    1.818679 H    889 MOH     0.0372 ****
5637 C1      9.521314  -28.325328    2.345473 C    889 MOH     0.1166 ****
5638 HC2    10.574978  -28.569460    2.208295 H    889 MOH     0.0372 ****
5639 HC3     9.291529  -28.314713    3.410376 H    889 MOH     0.0372 ****
5640 O1      9.393142  -27.065065    1.793223 O    889 MOH    -0.6497 ****
5641 HO1    10.191618  -26.588640    2.034346 H    889 MOH     0.4215 ****
5642 HC1     4.095376  -17.725569    6.900655 H    890 MOH     0.0372 ****
5643 C1      4.440632  -18.568602    6.303150 C    890 MOH     0.1166 ****
5644 HC2     5.180795  -19.100549    6.902069 H    890 MOH     0.0372 ****
5645 HC3     4.882305  -18.182807    5.384618 H    890 MOH     0.0372 ****
5646 O1      3.388122  -19.486344    5.969396 O    890 MOH    -0.6497 ****
5647 HO1     3.666982  -19.999512    5.207842 H    890 MOH     0.4215 ****
5648 HC1    11.252788   -9.188281    0.678116 H    891 MOH     0.0372 ****
5649 C1     10.760308   -8.751864   -0.190919 C    891 MOH     0.1166 ****
5650 HC2     9.818072   -8.264415    0.059397 H    891 MOH     0.0372 ****
5651 HC3    10.508006   -9.586323   -0.845700 H    891 MOH     0.0372 ****
5652 O1     11.598043   -7.826773   -0.890954 O    891 MOH    -0.6497 ****
5653 HO1    11.057066   -7.127035   -1.262893 H    891 MOH     0.4215 ****
5654 HC1     9.160470  -29.405145   -2.843983 H    892 MOH     0.0372 ****
5655 C1      9.127561  -28.320021   -2.942978 C    892 MOH     0.1166 ****
5656 HC2     9.572698  -27.850943   -2.065459 H    892 MOH     0.0372 ****
5657 HC3     8.090063  -27.994238   -3.017931 H    892 MOH     0.0372 ****
5658 O1      9.813454  -27.942799   -4.108290 O    892 MOH    -0.6497 ****
5659 HO1     9.915067  -26.989539   -4.067985 H    892 MOH     0.4215 ****
5660 HC1    17.593826  -20.588206   -1.660994 H    893 MOH     0.0372 ****
5661 C1     16.687963  -20.263649   -2.172232 C    893 MOH     0.1166 ****
5662 HC2    15.802308  -20.656384   -1.673014 H    893 MOH     0.0372 ****
5663 HC3    16.695469  -20.611885   -3.205315 H    893 MOH     0.0372 ****
5664 O1     16.595010  -18.871522   -2.158090 O    893 MOH    -0.6497 ****
5665 HO1    16.865210  -18.586157   -1.281984 H    893 MOH     0.4215 ****
5666 HC1    10.128109  -16.024399    0.323855 H    894 MOH     0.0372 ****
5667 C1     10.791485  -16.846202    0.593263 C    894 MOH     0.1166 ****
5668 HC2    11.807621  -16.460000    0.671045 H    894 MOH     0.0372 ****
5669 HC3    10.777628  -17.628814   -0.165463 H    894 MOH     0.0372 ****
5670 O1     10.413320  -17.273230    1.880197 O    894 MOH    -0.6497 ****
5671 HO1    10.467014  -16.504090    2.451539 H    894 MOH     0.4215 ****
5672 HC1    13.908022   -9.825148    4.427196 H    895 MOH     0.0372 ****
5673 C1     13.568540  -10.571018    3.708068 C    895 MOH     0.1166 ****
5674 HC2    13.062203  -11.408335    4.189608 H    895 MOH     0.0372 ****
5675 HC3    14.455350  -10.967835    3.213093 H    895 MOH     0.0372 ****
5676 O1     12.727340   -9.950481    2.753474 O    895 MOH    -0.6497 ****
5677 HO1    13.256770   -9.265440    2.337695 H    895 MOH     0.4215 ****
5678 HC1     4.614414  -17.061349   -4.553768 H    896 MOH     0.0372 ****
5679 C1      3.983948  -17.374884   -3.722210 C    896 MOH     0.1166 ****
5680 HC2     3.007649  -17.687602   -4.092734 H    896 MOH     0.0372 ****
5681 HC3     3.813629  -16.547773   -3.032074 H    896 MOH     0.0372 ****
5682 O1      4.586124  -18.428981   -3.026417 O    896 MOH    -0.6497 ****
5683 HO1     3.935450  -18.783341   -2.416891 H    896 MOH     0.4215 ****
5684 HC1     7.276576  -12.328935   -1.409971 H    897 MOH     0.0372 ****
5685 C1      7.933024  -12.053367   -0.584777 C    897 MOH     0.1166 ****
5686 HC2     7.386273  -12.089293    0.358503 H    897 MOH     0.0372 ****
5687 HC3     8.279434  -11.030706   -0.735391 H    897 MOH     0.0372 ****
5688 O1      9.051928  -12.925386   -0.519723 O    897 MOH    -0.6497 ****
5689 HO1     9.656992  -12.598787    0.150614 H    897 MOH     0.4215 ****
5690 HC1    11.053024   -7.614076    6.357597 H    898 MOH     0.0372 ****
5691 C1     10.741255   -8.032938    7.315020 C    898 MOH     0.1166 ****
5692 HC2    10.214134   -7.286660    7.907575 H    898 MOH     0.0372 ****
5693 HC3    11.633839   -8.366477    7.843229 H    898 MOH     0.0372 ****
5694 O1      9.926614   -9.147048    7.088039 O    898 MOH    -0.6497 ****
5695 HO1     9.240722   -8.905773    6.462249 H    898 MOH     0.4215 ****
5696 HC1     3.732800   -2.219891   -1.361888 H    899 MOH     0.0372 ****
5697 C1      2.825206   -1.840220   -1.831407 C    899 MOH     0.1166 ****
5698 HC2     2.955687   -1.860224   -2.913987 H    899 MOH     0.0372 ****
5699 HC3     2.682023   -0.809393   -1.509673 H    899 MOH     0.0372 ****
5700 O1      1.684939   -2.633446   -1.457347 O    899 MOH    -0.6497 ****
5701 HO1     0.911867   -2.128443   -1.719684 H    899 MOH     0.4215 ****
5702 HC1     5.890358  -10.689818    5.149859 H    900 MOH     0.0372 ****
5703 C1      6.472327  -10.447319    4.260318 C    900 MOH     0.1166 ****
5704 HC2     6.435954  -11.269122    3.545434 H    900 MOH     0.0372 ****
5705 HC3     7.499434  -10.304024    4.597608 H    900 MOH     0.0372 ****
5706 O1      6.006406   -9.202978    3.728574 O    900 MOH    -0.6497 ****
5707 HO1     6.422098   -8.525694    4.266682 H    900 MOH     0.4215 ****
5708 HC1     3.384658  -15.256075    2.821356 H    901 MOH     0.0372 ****
5709 C1      3.547471  -15.480204    3.875652 C    901 MOH     0.1166 ****
5710 HC2     4.115006  -16.406927    3.967576 H    901 MOH     0.0372 ****
5711 HC3     2.563666  -15.597779    4.329615 H    901 MOH     0.0372 ****
5712 O1      4.240291  -14.403653    4.467501 O    901 MOH    -0.6497 ****
5713 HO1     5.078604  -14.313022    4.009296 H    901 MOH     0.4215 ****
5714 HC1     1.320054  -21.322237    7.580892 H    902 MOH     0.0372 ****
5715 C1      0.926878  -20.887452    8.499424 C    902 MOH     0.1166 ****
5716 HC2     0.742703  -19.822741    8.358002 H    902 MOH     0.0372 ****
5717 HC3     1.626049  -21.031564    9.323203 H    902 MOH     0.0372 ****
5718 O1     -0.237637  -21.548406    8.828228 O    902 MOH    -0.6497 ****
5719 HO1    -0.661990  -21.098925    9.562912 H    902 MOH     0.4215 ****
5720 HC1     3.106953  -15.360995   -6.514575 H    903 MOH     0.0372 ****
5721 C1      2.973585  -16.383657   -6.867421 C    903 MOH     0.1166 ****
5722 HC2     1.974769  -16.461224   -7.295928 H    903 MOH     0.0372 ****
5723 HC3     3.046908  -17.100541   -6.050005 H    903 MOH     0.0372 ****
5724 O1      3.893881  -16.660858   -7.879291 O    903 MOH    -0.6497 ****
5725 HO1     4.009929  -17.608810   -7.971215 H    903 MOH     0.4215 ****
5726 HC1     5.293956  -24.635580   -7.556850 H    904 MOH     0.0372 ****
5727 C1      4.557257  -24.289794   -6.832066 C    904 MOH     0.1166 ****
5728 HC2     4.286479  -25.097717   -6.151122 H    904 MOH     0.0372 ****
5729 HC3     3.648507  -23.990139   -7.352496 H    904 MOH     0.0372 ****
5730 O1      4.997198  -23.208344   -6.037985 O    904 MOH    -0.6497 ****
5731 HO1     5.944629  -23.276930   -5.902220 H    904 MOH     0.4215 ****
5732 HC1     6.242542   -8.080295   -7.204711 H    905 MOH     0.0372 ****
5733 C1      5.394992   -8.744923   -7.035005 C    905 MOH     0.1166 ****
5734 HC2     4.529544   -8.101116   -6.878735 H    905 MOH     0.0372 ****
5735 HC3     5.627664   -9.346681   -6.156779 H    905 MOH     0.0372 ****
5736 O1      5.261624   -9.446702   -8.250522 O    905 MOH    -0.6497 ****
5737 HO1     6.107442   -9.852501   -8.455583 H    905 MOH     0.4215 ****
5738 HC1     4.131172  -26.886253   -1.794637 H    906 MOH     0.0372 ****
5739 C1      5.166361  -26.582108   -1.950907 C    906 MOH     0.1166 ****
5740 HC2     5.755258  -27.484745   -2.118492 H    906 MOH     0.0372 ****
5741 HC3     5.539329  -26.025257   -1.092480 H    906 MOH     0.0372 ****
5742 O1      5.164052  -25.850527   -3.127533 O    906 MOH    -0.6497 ****
5743 HO1     5.801446  -25.141399   -3.017932 H    906 MOH     0.4215 ****
5744 HC1    17.193722  -21.694151    2.776102 H    907 MOH     0.0372 ****
5745 C1     17.577660  -21.097292    1.948787 C    907 MOH     0.1166 ****
5746 HC2    18.265284  -21.714563    1.370373 H    907 MOH     0.0372 ****
5747 HC3    18.078800  -20.235480    2.390728 H    907 MOH     0.0372 ****
5748 O1     16.512449  -20.657608    1.161777 O    907 MOH    -0.6497 ****
5749 HO1    15.983018  -21.413684    0.900147 H    907 MOH     0.4215 ****
5750 HC1     7.659937  -12.697991    7.376538 H    908 MOH     0.0372 ****
5751 C1      7.723445  -13.621041    6.800246 C    908 MOH     0.1166 ****
5752 HC2     8.755170  -13.825165    6.514575 H    908 MOH     0.0372 ****
5753 HC3     7.106258  -13.509181    5.909292 H    908 MOH     0.0372 ****
5754 O1      7.205562  -14.674321    7.565336 O    908 MOH    -0.6497 ****
5755 HO1     7.455555  -15.498983    7.141072 H    908 MOH     0.4215 ****
5756 HC1     2.272104   -7.074371   -3.954848 H    909 MOH     0.0372 ****
5757 C1      3.143326   -7.729610   -3.973940 C    909 MOH     0.1166 ****
5758 HC2     3.142749   -8.301157   -4.901664 H    909 MOH     0.0372 ****
5759 HC3     3.115613   -8.438737   -3.145918 H    909 MOH     0.0372 ****
5760 O1      4.321698   -6.944957   -3.900401 O    909 MOH    -0.6497 ****
5761 HO1     4.292253   -6.434238   -3.087935 H    909 MOH     0.4215 ****
5762 HC1    17.085757  -16.237504    1.511795 H    910 MOH     0.0372 ****
5763 C1     17.726039  -17.112789    1.620689 C    910 MOH     0.1166 ****
5764 HC2    17.575928  -17.513688    2.623366 H    910 MOH     0.0372 ****
5765 HC3    18.764692  -16.800070    1.514623 H    910 MOH     0.0372 ****
5766 O1     17.346720  -18.054617    0.617305 O    910 MOH    -0.6497 ****
5767 HO1    17.275706  -18.927860    1.009749 H    910 MOH     0.4215 ****
5768 HC1    15.221493  -14.023982    5.932626 H    911 MOH     0.0372 ****
5769 C1     16.080013  -13.662274    5.366941 C    911 MOH     0.1166 ****
5770 HC2    15.731871  -13.142982    4.474572 H    911 MOH     0.0372 ****
5771 HC3    16.709325  -14.502857    5.073491 H    911 MOH     0.0372 ****
5772 O1     16.829414  -12.772701    6.162436 O    911 MOH    -0.6497 ****
5773 HO1    16.996845  -13.191155    7.010257 H    911 MOH     0.4215 ****
5774 HC1    16.020546  -12.702891   -3.999396 H    912 MOH     0.0372 ****
5775 C1     15.573677  -12.288927   -4.903078 C    912 MOH     0.1166 ****
5776 HC2    14.545994  -11.970085   -4.731251 H    912 MOH     0.0372 ****
5777 HC3    15.604277  -13.061333   -5.672410 H    912 MOH     0.0372 ****
5778 O1     16.384277  -11.224623   -5.291280 O    912 MOH    -0.6497 ****
5779 HO1    16.566142  -10.678387   -4.523362 H    912 MOH     0.4215 ****
5780 HC1     9.246496  -14.955196   -9.405227 H    913 MOH     0.0372 ****
5781 C1      8.322158  -14.439987   -9.666857 C    913 MOH     0.1166 ****
5782 HC2     7.609130  -14.486936   -8.843077 H    913 MOH     0.0372 ****
5783 HC3     7.886258  -14.886202  -10.559932 H    913 MOH     0.0372 ****
5784 O1      8.560026  -13.090726   -9.946164 O    913 MOH    -0.6497 ****
5785 HO1     9.064630  -13.060516  -10.762165 H    913 MOH     0.4215 ****
5786 HC1     0.852400  -20.816417   12.798633 H    914 MOH     0.0372 ****
5787 C1      1.746715  -21.258958   13.238453 C    914 MOH     0.1166 ****
5788 HC2     1.812533  -20.985840   14.291335 H    914 MOH     0.0372 ****
5789 HC3     2.636989  -20.889085   12.729336 H    914 MOH     0.0372 ****
5790 O1      1.695331  -22.671497   13.122488 O    914 MOH    -0.6497 ****
5791 HO1     2.600616  -22.979725   13.210876 H    914 MOH     0.4215 ****
5792 HC1    -0.493981  -25.174876   -8.865705 H    915 MOH     0.0372 ****
5793 C1      0.019861  -24.865832   -7.955658 C    915 MOH     0.1166 ****
5794 HC2     1.102970  -24.891960   -8.071624 H    915 MOH     0.0372 ****
5795 HC3    -0.283248  -25.505149   -7.125515 H    915 MOH     0.0372 ****
5796 O1     -0.419503  -23.608427   -7.672816 O    915 MOH    -0.6497 ****
5797 HO1    -0.751479  -23.246311   -8.498009 H    915 MOH     0.4215 ****
5798 HC1     0.256574  -12.436713    6.385174 H    916 MOH     0.0372 ****
5799 C1      0.190179  -12.697175    7.441592 C    916 MOH     0.1166 ****
5800 HC2     0.298144  -13.775359    7.565336 H    916 MOH     0.0372 ****
5801 HC3    -0.793626  -12.382416    7.790195 H    916 MOH     0.0372 ****
5802 O1      1.173984  -11.978250    8.164962 O    916 MOH    -0.6497 ****
5803 HO1     1.996708  -12.087252    7.682008 H    916 MOH     0.4215 ****
5804 HC1     7.803120   -9.875771   11.233806 H    917 MOH     0.0372 ****
5805 C1      8.240751  -10.779224   10.808834 C    917 MOH     0.1166 ****
5806 HC2     8.484393  -10.584082    9.765145 H    917 MOH     0.0372 ****
5807 HC3     7.535229  -11.605519   10.902173 H    917 MOH     0.0372 ****
5808 O1      9.376977  -11.076837   11.556246 O    917 MOH    -0.6497 ****
5809 HO1    10.004556  -10.350972   11.508163 H    917 MOH     0.4215 ****
5810 HC1     4.583237  -17.073597   10.600945 H    918 MOH     0.0372 ****
5811 C1      4.172741  -18.030122   10.924093 C    918 MOH     0.1166 ****
5812 HC2     4.951587  -18.792730   10.945306 H    918 MOH     0.0372 ****
5813 HC3     3.387545  -18.308956   10.221936 H    918 MOH     0.0372 ****
5814 O1      3.576916  -17.885602   12.179914 O    918 MOH    -0.6497 ****
5815 HO1     4.197567  -17.436529   12.758328 H    918 MOH     0.4215 ****
5816 HC1     0.966138   -6.348098   -2.428205 H    919 MOH     0.0372 ****
5817 C1      1.532519   -6.043136   -1.547857 C    919 MOH     0.1166 ****
5818 HC2     1.918189   -6.936792   -1.056417 H    919 MOH     0.0372 ****
5819 HC3     0.878381   -5.519354   -0.851357 H    919 MOH     0.0372 ****
5820 O1      2.627175   -5.228681   -1.953029 O    919 MOH    -0.6497 ****
5821 HO1     2.276146   -4.353396   -2.129806 H    919 MOH     0.4215 ****
5822 HC1     3.087900  -20.103207   -0.065761 H    920 MOH     0.0372 ****
5823 C1      2.776131  -19.059725   -0.101116 C    920 MOH     0.1166 ****
5824 HC2     3.582112  -18.402445    0.226981 H    920 MOH     0.0372 ****
5825 HC3     1.933200  -18.936434    0.577706 H    920 MOH     0.0372 ****
5826 O1      2.322911  -18.713530   -1.395122 O    920 MOH    -0.6497 ****
5827 HO1     2.111601  -17.777825   -1.365423 H    920 MOH     0.4215 ****
5828 HC1     9.784009  -12.089702    7.431692 H    921 MOH     0.0372 ****
5829 C1     10.709501  -11.790047    7.925253 C    921 MOH     0.1166 ****
5830 HC2    11.153483  -12.644103    8.437198 H    921 MOH     0.0372 ****
5831 HC3    10.463550  -11.038054    8.674786 H    921 MOH     0.0372 ****
5832 O1     11.591692  -11.290760    6.899241 O    921 MOH    -0.6497 ****
5833 HO1    11.401167  -10.352605    6.824288 H    921 MOH     0.4215 ****
5834 HC1    -1.316128  -20.321620    6.634076 H    922 MOH     0.0372 ****
5835 C1     -0.832886  -20.472264    5.668875 C    922 MOH     0.1166 ****
5836 HC2    -0.377356  -21.461858    5.649076 H    922 MOH     0.0372 ****
5837 HC3    -0.072515  -19.703124    5.530282 H    922 MOH     0.0372 ****
5838 O1     -1.864033  -20.422866    4.682461 O    922 MOH    -0.6497 ****
5839 HO1    -2.376720  -19.621883    4.812569 H    922 MOH     0.4215 ****
5840 HC1     8.118930  -16.286494   -2.149604 H    923 MOH     0.0372 ****
5841 C1      8.900663  -15.613293   -2.501036 C    923 MOH     0.1166 ****
5842 HC2     9.460115  -16.048077   -3.329059 H    923 MOH     0.0372 ****
5843 HC3     9.585977  -15.408352   -1.679378 H    923 MOH     0.0372 ****
5844 O1      8.326777  -14.413859   -2.946514 O    923 MOH    -0.6497 ****
5845 HO1     8.521921  -13.770460   -2.260620 H    923 MOH     0.4215 ****
5846 HC1    13.018787    6.454405   -1.878076 H    924 MOH     0.0372 ****
5847 C1     11.982443    6.593210   -1.571191 C    924 MOH     0.1166 ****
5848 HC2    11.418949    6.957367   -2.429619 H    924 MOH     0.0372 ****
5849 HC3    11.912584    7.343162   -0.782767 H    924 MOH     0.0372 ****
5850 O1     11.457054    5.350502   -1.153998 O    924 MOH    -0.6497 ****
5851 HO1    10.694375    5.502779   -0.591848 H    924 MOH     0.4215 ****
5852 HC1    19.626560   -2.847532    6.719636 H    925 MOH     0.0372 ****
5853 C1     19.687760   -2.067778    7.477654 C    925 MOH     0.1166 ****
5854 HC2    20.048026   -2.513585    8.405379 H    925 MOH     0.0372 ****
5855 HC3    18.694717   -1.642383    7.623318 H    925 MOH     0.0372 ****
5856 O1     20.558981   -1.045116    7.049855 O    925 MOH    -0.6497 ****
5857 HO1    21.445791   -1.405191    6.983387 H    925 MOH     0.4215 ****
5858 HC1    25.885037    1.901621    0.939038 H    926 MOH     0.0372 ****
5859 C1     26.318627    2.094722    1.919795 C    926 MOH     0.1166 ****
5860 HC2    26.604416    3.145553    1.970707 H    926 MOH     0.0372 ****
5861 HC3    27.206592    1.475409    2.046367 H    926 MOH     0.0372 ****
5862 O1     25.364267    1.779963    2.927422 O    926 MOH    -0.6497 ****
5863 HO1    25.565185    0.888348    3.220165 H    926 MOH     0.4215 ****
5864 HC1    19.247819   -8.952069   -6.693473 H    927 MOH     0.0372 ****
5865 C1     19.060757   -9.937988   -6.268501 C    927 MOH     0.1166 ****
5866 HC2    18.668736   -9.843275   -5.255924 H    927 MOH     0.0372 ****
5867 HC3    20.018004  -10.454422   -6.199912 H    927 MOH     0.0372 ****
5868 O1     18.219558  -10.741829   -7.117737 O    927 MOH    -0.6497 ****
5869 HO1    17.503644  -11.088024   -6.580335 H    927 MOH     0.4215 ****
5870 HC1    21.878227   -8.480133   -0.056568 H    928 MOH     0.0372 ****
5871 C1     21.029522   -8.045349    0.471640 C    928 MOH     0.1166 ****
5872 HC2    20.893267   -7.018196    0.133643 H    928 MOH     0.0372 ****
5873 HC3    21.194066   -8.057596    1.549271 H    928 MOH     0.0372 ****
5874 O1     19.863851   -8.743454    0.137886 O    928 MOH    -0.6497 ****
5875 HO1    19.890987   -9.544029    0.667509 H    928 MOH     0.4215 ****
5876 HC1    29.954780    0.290265   -3.676248 H    929 MOH     0.0372 ****
5877 C1     29.760212    1.031643   -2.901259 C    929 MOH     0.1166 ****
5878 HC2    28.696156    1.073693   -2.668621 H    929 MOH     0.0372 ****
5879 HC3    30.061589    2.020013   -3.248448 H    929 MOH     0.0372 ****
5880 O1     30.429939    0.701371   -1.689985 O    929 MOH    -0.6497 ****
5881 HO1    30.212278   -0.193101   -1.417749 H    929 MOH     0.4215 ****
5882 HC1    14.068409    5.003083    2.790951 H    930 MOH     0.0372 ****
5883 C1     14.672318    5.554626    3.511492 C    930 MOH     0.1166 ****
5884 HC2    15.484072    4.919392    3.865046 H    930 MOH     0.0372 ****
5885 HC3    14.023953    5.840400    4.340222 H    930 MOH     0.0372 ****
5886 O1     15.176922    6.678534    2.856004 O    930 MOH    -0.6497 ****
5887 HO1    15.989831    6.940221    3.295118 H    930 MOH     0.4215 ****
5888 HC1    20.772601   -1.404374   -9.670392 H    931 MOH     0.0372 ****
5889 C1     19.980476   -1.936730   -9.144305 C    931 MOH     0.1166 ****
5890 HC2    20.007612   -1.679125   -8.085766 H    931 MOH     0.0372 ****
5891 HC3    20.146176   -3.004299   -9.286433 H    931 MOH     0.0372 ****
5892 O1     18.751875   -1.521133   -9.700091 O    931 MOH    -0.6497 ****
5893 HO1    18.057323   -1.879983   -9.142183 H    931 MOH     0.4215 ****
5894 HC1    21.468885    6.486657  -10.789742 H    932 MOH     0.0372 ****
5895 C1     22.006398    6.829177  -11.674333 C    932 MOH     0.1166 ****
5896 HC2    21.678463    6.255180  -12.541246 H    932 MOH     0.0372 ****
5897 HC3    23.065836    6.644649  -11.496142 H    932 MOH     0.0372 ****
5898 O1     21.746013    8.209873  -11.943033 O    932 MOH    -0.6497 ****
5899 HO1    22.005244    8.414814  -12.843887 H    932 MOH     0.4215 ****
5900 HC1    24.837724    4.654439   -2.147483 H    933 MOH     0.0372 ****
5901 C1     24.886221    3.566865   -2.198395 C    933 MOH     0.1166 ****
5902 HC2    24.508057    3.212098   -3.156524 H    933 MOH     0.0372 ****
5903 HC3    24.279426    3.120242   -1.410678 H    933 MOH     0.0372 ****
5904 O1     26.222787    3.132489   -2.124856 O    933 MOH    -0.6497 ****
5905 HO1    26.190456    2.173106   -2.103642 H    933 MOH     0.4215 ****
5906 HC1    15.927477    3.629735   -7.720899 H    934 MOH     0.0372 ****
5907 C1     15.973088    3.174947   -8.710848 C    934 MOH     0.1166 ****
5908 HC2    16.890498    2.596051   -8.819743 H    934 MOH     0.0372 ****
5909 HC3    15.962696    3.952660   -9.473817 H    934 MOH     0.0372 ****
5910 O1     14.869772    2.338446   -8.927930 O    934 MOH    -0.6497 ****
5911 HO1    15.129002    1.450914   -8.670543 H    934 MOH     0.4215 ****
5912 HC1    24.034630   -0.927132   -9.225622 H    935 MOH     0.0372 ****
5913 C1     24.233238    0.033476   -8.751153 C    935 MOH     0.1166 ****
5914 HC2    25.297872    0.250664   -8.834592 H    935 MOH     0.0372 ****
5915 HC3    24.004030   -0.001633   -7.686250 H    935 MOH     0.0372 ****
5916 O1     23.439959    1.029194   -9.402399 O    935 MOH    -0.6497 ****
5917 HO1    23.487302    1.805274   -8.838835 H    935 MOH     0.4215 ****
5918 HC1     6.729133    2.468269    3.379970 H    936 MOH     0.0372 ****
5919 C1      7.769518    2.495622    3.053994 C    936 MOH     0.1166 ****
5920 HC2     8.353796    1.855897    3.716553 H    936 MOH     0.0372 ****
5921 HC3     8.110732    3.529306    3.107734 H    936 MOH     0.0372 ****
5922 O1      7.836491    2.013481    1.730997 O    936 MOH    -0.6497 ****
5923 HO1     7.241820    1.260671    1.687157 H    936 MOH     0.4215 ****
5924 HC1    22.875888   -6.394393   -4.213649 H    937 MOH     0.0372 ****
5925 C1     22.923231   -5.670977   -3.399062 C    937 MOH     0.1166 ****
5926 HC2    22.129951   -4.943479   -3.570182 H    937 MOH     0.0372 ****
5927 HC3    23.883941   -5.157401   -3.445731 H    937 MOH     0.0372 ****
5928 O1     22.737901   -6.312743   -2.105057 O    937 MOH    -0.6497 ****
5929 HO1    22.546221   -5.637092   -1.449569 H    937 MOH     0.4215 ****
5930 HC1     3.952078    1.386003    2.079601 H    938 MOH     0.0372 ****
5931 C1      3.517333    0.500512    2.542756 C    938 MOH     0.1166 ****
5932 HC2     3.105105   -0.174322    1.792516 H    938 MOH     0.0372 ****
5933 HC3     2.695186    0.786694    3.199658 H    938 MOH     0.0372 ****
5934 O1      4.422619   -0.202083    3.338251 O    938 MOH    -0.6497 ****
5935 HO1     3.896075   -0.919783    3.698876 H    938 MOH     0.4215 ****
5936 HC1    29.633773    2.320075    0.105359 H    939 MOH     0.0372 ****
5937 C1     29.716334    3.259863    0.651246 C    939 MOH     0.1166 ****
5938 HC2    28.889568    3.915509    0.378302 H    939 MOH     0.0372 ****
5939 HC3    30.673581    3.722000    0.406587 H    939 MOH     0.0372 ****
5940 O1     29.675342    2.901829    1.992627 O    939 MOH    -0.6497 ****
5941 HO1    29.899354    3.644841    2.556898 H    939 MOH     0.4215 ****
5942 HC1    17.541171    6.944303   -0.151321 H    940 MOH     0.0372 ****
5943 C1     16.875486    7.803258   -0.066468 C    940 MOH     0.1166 ****
5944 HC2    15.833369    7.483191   -0.073539 H    940 MOH     0.0372 ****
5945 HC3    17.010586    8.427878   -0.948937 H    940 MOH     0.0372 ****
5946 O1     17.101230    8.600158    1.137028 O    940 MOH    -0.6497 ****
5947 HO1    17.028484    8.033102    1.907067 H    940 MOH     0.4215 ****
5948 HC1    17.615649   -3.709752    8.798530 H    941 MOH     0.0372 ****
5949 C1     17.915294   -4.756909    8.783681 C    941 MOH     0.1166 ****
5950 HC2    18.549225   -4.945520    7.916768 H    941 MOH     0.0372 ****
5951 HC3    17.047537   -5.410923    8.704485 H    941 MOH     0.0372 ****
5952 O1     18.620239   -5.067994    9.977277 O    941 MOH    -0.6497 ****
5953 HO1    19.054406   -5.916334    9.858483 H    941 MOH     0.4215 ****
5954 HC1     8.308186   -7.214156   -9.557962 H    942 MOH     0.0372 ****
5955 C1      8.720991   -6.206599   -9.594732 C    942 MOH     0.1166 ****
5956 HC2     8.635544   -5.735889   -8.615389 H    942 MOH     0.0372 ****
5957 HC3     8.144218   -5.618721  -10.308910 H    942 MOH     0.0372 ****
5958 O1     10.060444   -6.262121  -10.026067 O    942 MOH    -0.6497 ****
5959 HO1    10.093930   -6.922666  -10.721860 H    942 MOH     0.4215 ****
5960 HC1    24.421455   -9.057397   -3.609073 H    943 MOH     0.0372 ****
5961 C1     23.741336   -9.626086   -2.974798 C    943 MOH     0.1166 ****
5962 HC2    24.095829   -9.588936   -1.944543 H    943 MOH     0.0372 ****
5963 HC3    23.686488  -10.662629   -3.306431 H    943 MOH     0.0372 ****
5964 O1     22.508693   -9.003100   -3.056822 O    943 MOH    -0.6497 ****
5965 HO1    22.610884   -8.110261   -2.720947 H    943 MOH     0.4215 ****
5966 HC1    14.481792   11.198251    2.582354 H    944 MOH     0.0372 ****
5967 C1     14.027418   11.496272    1.637659 C    944 MOH     0.1166 ****
5968 HC2    12.946618   11.361550    1.685743 H    944 MOH     0.0372 ****
5969 HC3    14.450038   10.871652    0.849942 H    944 MOH     0.0372 ****
5970 O1     14.309165   12.853697    1.378151 O    944 MOH    -0.6497 ****
5971 HO1    14.039542   13.048024    0.477297 H    944 MOH     0.4215 ****
5972 HC1    15.522755   14.111919    5.705645 H    945 MOH     0.0372 ****
5973 C1     15.180963   13.442391    4.916514 C    945 MOH     0.1166 ****
5974 HC2    14.682710   12.566291    5.332292 H    945 MOH     0.0372 ****
5975 HC3    16.053340   13.124366    4.345878 H    945 MOH     0.0372 ****
5976 O1     14.399808   14.172339    3.994446 O    945 MOH    -0.6497 ****
5977 HO1    14.426944   13.685299    3.167838 H    945 MOH     0.4215 ****
5978 HC1    18.289417   -2.594010    1.374616 H    946 MOH     0.0372 ****
5979 C1     18.149121   -2.748327    0.305470 C    946 MOH     0.1166 ****
5980 HC2    17.952822   -1.793843   -0.183848 H    946 MOH     0.0372 ****
5981 HC3    17.314850   -3.427244    0.129401 H    946 MOH     0.0372 ****
5982 O1     19.324606   -3.302729   -0.246073 O    946 MOH    -0.6497 ****
5983 HO1    19.971239   -3.403566    0.456084 H    946 MOH     0.4215 ****
5984 HC1    21.052616    5.442358    2.665086 H    947 MOH     0.0372 ****
5985 C1     21.535280    4.476443    2.518007 C    947 MOH     0.1166 ****
5986 HC2    20.762208    3.722408    2.370222 H    947 MOH     0.0372 ****
5987 HC3    22.099929    4.233943    3.417447 H    947 MOH     0.0372 ****
5988 O1     22.443452    4.504203    1.395122 O    947 MOH    -0.6497 ****
5989 HO1    23.154748    5.108411    1.624224 H    947 MOH     0.4215 ****
5990 HC1    15.745612   -2.800175   -5.994144 H    948 MOH     0.0372 ****
5991 C1     15.584531   -3.813039   -5.625741 C    948 MOH     0.1166 ****
5992 HC2    14.833399   -3.768132   -4.838024 H    948 MOH     0.0372 ****
5993 HC3    16.509446   -4.213531   -5.210670 H    948 MOH     0.0372 ****
5994 O1     15.133043   -4.659746   -6.682159 O    948 MOH    -0.6497 ****
5995 HO1    15.537766   -5.517884   -6.532252 H    948 MOH     0.4215 ****
5996 HC1    24.751121   -8.683033    1.619982 H    949 MOH     0.0372 ****
5997 C1     24.584845   -8.596076    2.694077 C    949 MOH     0.1166 ****
5998 HC2    24.657013   -7.539938    2.953585 H    949 MOH     0.0372 ****
5999 HC3    25.371773   -9.150069    3.206730 H    949 MOH     0.0372 ****
6000 O1     23.259248   -9.114960    2.928129 O    949 MOH    -0.6497 ****
6001 HO1    22.948057   -8.766316    3.766758 H    949 MOH     0.4215 ****
6002 HC1    23.617205    8.714060   10.801056 H    950 MOH     0.0372 ****
6003 C1     22.905910    7.888174   10.790450 C    950 MOH     0.1166 ****
6004 HC2    23.267909    7.157001   10.067079 H    950 MOH     0.0372 ****
6005 HC3    21.916909    8.260496   10.520335 H    950 MOH     0.0372 ****
6006 O1     22.842401    7.314585   12.075263 O    950 MOH    -0.6497 ****
6007 HO1    22.566428    7.998401   12.689738 H    950 MOH     0.4215 ****
6008 HC1    19.546886   10.243766   -6.206983 H    951 MOH     0.0372 ****
6009 C1     18.966072   10.625070   -5.366940 C    951 MOH     0.1166 ****
6010 HC2    19.263407   11.632219   -5.074905 H    951 MOH     0.0372 ****
6011 HC3    19.173918    9.969831   -4.520534 H    951 MOH     0.0372 ****
6012 O1     17.586782   10.581387   -5.651904 O    951 MOH    -0.6497 ****
6013 HO1    17.181482    9.906553   -5.102482 H    951 MOH     0.4215 ****
6014 HC1    24.344667   -2.545020    0.438406 H    952 MOH     0.0372 ****
6015 C1     24.327924   -3.552168    0.020506 C    952 MOH     0.1166 ****
6016 HC2    24.829641   -4.210673    0.728320 H    952 MOH     0.0372 ****
6017 HC3    24.879293   -3.580746   -0.919946 H    952 MOH     0.0372 ****
6018 O1     22.985007   -3.987769   -0.128693 O    952 MOH    -0.6497 ****
6019 HO1    22.493105   -3.726899    0.654074 H    952 MOH     0.4215 ****
6020 HC1    18.479366    1.245974   -0.429921 H    953 MOH     0.0372 ****
6021 C1     17.415886    1.446832   -0.561443 C    953 MOH     0.1166 ****
6022 HC2    16.833917    0.525824   -0.534573 H    953 MOH     0.0372 ****
6023 HC3    17.250764    1.917542   -1.530886 H    953 MOH     0.0372 ****
6024 O1     16.965553    2.337221    0.417900 O    953 MOH    -0.6497 ****
6025 HO1    17.075827    3.231693    0.087681 H    953 MOH     0.4215 ****
6026 HC1    22.192305    4.173522   -3.226528 H    954 MOH     0.0372 ****
6027 C1     21.788160    4.519309   -4.177587 C    954 MOH     0.1166 ****
6028 HC2    20.855162    3.995934   -4.389719 H    954 MOH     0.0372 ****
6029 HC3    22.509270    4.374380   -4.981567 H    954 MOH     0.0372 ****
6030 O1     21.541631    5.885307   -4.023437 O    954 MOH    -0.6497 ****
6031 HO1    22.366088    6.340912   -3.835347 H    954 MOH     0.4215 ****
6032 HC1    17.959750   -7.082291    1.977071 H    955 MOH     0.0372 ****
6033 C1     17.773843   -6.496455    1.076924 C    955 MOH     0.1166 ****
6034 HC2    17.791741   -7.120258    0.183141 H    955 MOH     0.0372 ****
6035 HC3    18.521512   -5.710985    0.968029 H    955 MOH     0.0372 ****
6036 O1     16.531386   -5.908169    1.206324 O    955 MOH    -0.6497 ****
6037 HO1    16.232896   -5.797534    0.300521 H    955 MOH     0.4215 ****
6038 HC1    19.144473   -3.507261    3.396234 H    956 MOH     0.0372 ****
6039 C1     19.898492   -4.260887    3.168546 C    956 MOH     0.1166 ****
6040 HC2    19.412364   -5.150460    2.769030 H    956 MOH     0.0372 ****
6041 HC3    20.387508   -4.550335    4.098391 H    956 MOH     0.0372 ****
6042 O1     20.832645   -3.718734    2.223851 O    956 MOH    -0.6497 ****
6043 HO1    21.049152   -2.820996    2.483359 H    956 MOH     0.4215 ****
6044 HC1    17.389906    4.845499   -5.690088 H    957 MOH     0.0372 ****
6045 C1     17.152615    4.558909   -4.664783 C    957 MOH     0.1166 ****
6046 HC2    17.914717    3.896322   -4.255368 H    957 MOH     0.0372 ****
6047 HC3    16.199409    4.030227   -4.683875 H    957 MOH     0.0372 ****
6048 O1     17.051001    5.685266   -3.826862 O    957 MOH    -0.6497 ****
6049 HO1    17.824650    6.241708   -3.946363 H    957 MOH     0.4215 ****
6050 HC1    15.081082  -10.136805    0.661852 H    958 MOH     0.0372 ****
6051 C1     14.674050   -9.136188    0.516895 C    958 MOH     0.1166 ****
6052 HC2    13.628469   -9.181912    0.211425 H    958 MOH     0.0372 ****
6053 HC3    15.230616   -8.678542   -0.299813 H    958 MOH     0.0372 ****
6054 O1     14.828780   -8.312343    1.673722 O    958 MOH    -0.6497 ****
6055 HO1    15.111681   -7.432160    1.413507 H    958 MOH     0.4215 ****
6056 HC1    24.431847    6.060854   -4.893179 H    959 MOH     0.0372 ****
6057 C1     24.852158    6.944303   -4.412346 C    959 MOH     0.1166 ****
6058 HC2    25.105615    7.686091   -5.169657 H    959 MOH     0.0372 ****
6059 HC3    25.738968    6.661387   -3.845954 H    959 MOH     0.0372 ****
6060 O1     23.846991    7.440733   -3.589274 O    959 MOH    -0.6497 ****
6061 HO1    24.203216    7.637101   -2.720240 H    959 MOH     0.4215 ****
6062 HC1    18.783052    8.368682    7.682715 H    960 MOH     0.0372 ****
6063 C1     18.740328    9.242741    7.032884 C    960 MOH     0.1166 ****
6064 HC2    19.541113    9.942887    7.271179 H    960 MOH     0.0372 ****
6065 HC3    17.800979    9.758767    7.228046 H    960 MOH     0.0372 ****
6066 O1     18.740905    8.888382    5.641298 O    960 MOH    -0.6497 ****
6067 HO1    18.850024    9.680792    5.110261 H    960 MOH     0.4215 ****
6068 HC1    16.450557  -10.568732    3.698169 H    961 MOH     0.0372 ****
6069 C1     17.526738  -10.560567    3.528463 C    961 MOH     0.1166 ****
6070 HC2    17.947049   -9.700388    4.048187 H    961 MOH     0.0372 ****
6071 HC3    17.730542  -10.500146    2.459318 H    961 MOH     0.0372 ****
6072 O1     18.120254  -11.705295    4.029095 O    961 MOH    -0.6497 ****
6073 HO1    17.658373  -11.966574    4.828125 H    961 MOH     0.4215 ****
6074 HC1    13.096729    4.099221   -3.703118 H    962 MOH     0.0372 ****
6075 C1     12.514183    3.226386   -3.407547 C    962 MOH     0.1166 ****
6076 HC2    12.850200    2.311502   -3.894744 H    962 MOH     0.0372 ****
6077 HC3    11.494005    3.406424   -3.744837 H    962 MOH     0.0372 ****
6078 O1     12.507254    3.079417   -2.004648 O    962 MOH    -0.6497 ****
6079 HO1    12.320770    3.941229   -1.623517 H    962 MOH     0.4215 ****
6080 HC1    17.759987    0.357217   -5.118746 H    963 MOH     0.0372 ****
6081 C1     17.774421    1.064712   -5.948182 C    963 MOH     0.1166 ****
6082 HC2    16.783688    1.495822   -6.089603 H    963 MOH     0.0372 ****
6083 HC3    18.113326    0.571548   -6.858936 H    963 MOH     0.0372 ****
6084 O1     18.651416    2.116359   -5.641298 O    963 MOH    -0.6497 ****
6085 HO1    18.847715    2.123299   -4.701553 H    963 MOH     0.4215 ****
6086 HC1    23.891447   -3.477459    8.210924 H    964 MOH     0.0372 ****
6087 C1     23.966502   -2.435609    7.901211 C    964 MOH     0.1166 ****
6088 HC2    25.005156   -2.211073    7.657967 H    964 MOH     0.0372 ****
6089 HC3    23.604504   -1.834260    8.736305 H    964 MOH     0.0372 ****
6090 O1     23.078538   -2.278025    6.824995 O    964 MOH    -0.6497 ****
6091 HO1    23.445732   -2.798542    6.107282 H    964 MOH     0.4215 ****
6092 HC1    13.616344   -7.390110    8.759639 H    965 MOH     0.0372 ****
6093 C1     14.608809   -7.369290    8.309212 C    965 MOH     0.1166 ****
6094 HC2    15.131889   -6.458080    8.599126 H    965 MOH     0.0372 ****
6095 HC3    14.548765   -7.424812    7.223096 H    965 MOH     0.0372 ****
6096 O1     15.343776   -8.434001    8.757518 O    965 MOH    -0.6497 ****
6097 HO1    14.896907   -9.230086    8.461947 H    965 MOH     0.4215 ****
6098 HC1    11.556358    4.839375    1.764939 H    966 MOH     0.0372 ****
6099 C1     11.316758    4.206590    2.619124 C    966 MOH     0.1166 ****
6100 HC2    10.271177    4.331106    2.899845 H    966 MOH     0.0372 ****
6101 HC3    11.948957    4.514001    3.452802 H    966 MOH     0.0372 ****
6102 O1     11.618712    2.856513    2.303047 O    966 MOH    -0.6497 ****
6103 HO1    11.156255    2.583395    1.507552 H    966 MOH     0.4215 ****
6104 HC1    12.166618   -3.719550  -10.052937 H    967 MOH     0.0372 ****
6105 C1     12.596744   -4.289465   -9.228450 C    967 MOH     0.1166 ****
6106 HC2    13.372125   -4.933272   -9.643522 H    967 MOH     0.0372 ****
6107 HC3    11.851385   -4.938171   -8.768124 H    967 MOH     0.0372 ****
6108 O1     13.166011   -3.394993   -8.288706 O    967 MOH    -0.6497 ****
6109 HO1    13.580549   -3.934289   -7.612004 H    967 MOH     0.4215 ****
6110 HC1    22.513889    4.995734   -7.767568 H    968 MOH     0.0372 ****
6111 C1     23.257516    4.474809   -8.370023 C    968 MOH     0.1166 ****
6112 HC2    24.173194    5.064320   -8.418106 H    968 MOH     0.0372 ****
6113 HC3    22.921499    4.353560   -9.400277 H    968 MOH     0.0372 ****
6114 O1     23.595844    3.245982   -7.785953 O    968 MOH    -0.6497 ****
6115 HO1    22.892054    2.974497   -7.192690 H    968 MOH     0.4215 ****
6116 HC1    23.229804   -0.681366   -3.107734 H    969 MOH     0.0372 ****
6117 C1     23.190544   -1.750977   -3.312795 C    969 MOH     0.1166 ****
6118 HC2    22.412276   -2.179229   -2.681349 H    969 MOH     0.0372 ****
6119 HC3    24.159338   -2.187394   -3.068843 H    969 MOH     0.0372 ****
6120 O1     22.901869   -2.042874   -4.681047 O    969 MOH    -0.6497 ****
6121 HO1    23.331417   -2.857330   -4.953283 H    969 MOH     0.4215 ****
6122 HC1    27.391344   -2.001233   -5.354212 H    970 MOH     0.0372 ****
6123 C1     26.868842   -1.072060   -5.126524 C    970 MOH     0.1166 ****
6124 HC2    25.836540   -1.285166   -4.847924 H    970 MOH     0.0372 ****
6125 HC3    26.909257   -0.425803   -6.002629 H    970 MOH     0.0372 ****
6126 O1     27.556467   -0.508677   -4.060207 O    970 MOH    -0.6497 ****
6127 HO1    28.018924   -1.223928   -3.617558 H    970 MOH     0.4215 ****
6128 HC1    20.791653   -6.787128    4.285774 H    971 MOH     0.0372 ****
6129 C1     21.042801   -7.307644    5.209963 C    971 MOH     0.1166 ****
6130 HC2    20.375961   -8.161292    5.330878 H    971 MOH     0.0372 ****
6131 HC3    20.919825   -6.637709    6.060612 H    971 MOH     0.0372 ****
6132 O1     22.382831   -7.738346    5.113089 O    971 MOH    -0.6497 ****
6133 HO1    22.572779   -8.293972    5.871815 H    971 MOH     0.4215 ****
6134 HC1    22.264474    0.143295   -5.735343 H    972 MOH     0.0372 ****
6135 C1     21.327434    0.399267   -6.228196 C    972 MOH     0.1166 ****
6136 HC2    20.489122    0.067361   -5.615135 H    972 MOH     0.0372 ****
6137 HC3    21.308959   -0.099613   -7.196933 H    972 MOH     0.0372 ****
6138 O1     21.296835    1.782820   -6.445278 O    972 MOH    -0.6497 ****
6139 HO1    20.380580    2.024095   -6.597306 H    972 MOH     0.4215 ****
6140 HC1    18.934895   -4.566665   -7.443006 H    973 MOH     0.0372 ****
6141 C1     19.240313   -5.546870   -7.809994 C    973 MOH     0.1166 ****
6142 HC2    20.189477   -5.467261   -8.339617 H    973 MOH     0.0372 ****
6143 HC3    18.473592   -5.939196   -8.476796 H    973 MOH     0.0372 ****
6144 O1     19.393888   -6.467469   -6.735899 O    973 MOH    -0.6497 ****
6145 HO1    20.243171   -6.901437   -6.844086 H    973 MOH     0.4215 ****
6146 HC1    24.775948   -7.214972   -0.770039 H    974 MOH     0.0372 ****
6147 C1     25.647169   -6.711602   -1.189353 C    974 MOH     0.1166 ****
6148 HC2    25.349256   -5.762425   -1.632709 H    974 MOH     0.0372 ****
6149 HC3    26.085955   -7.323158   -1.978484 H    974 MOH     0.0372 ****
6150 O1     26.615963   -6.436443   -0.203646 O    974 MOH    -0.6497 ****
6151 HO1    27.046089   -7.274576   -0.020506 H    974 MOH     0.4215 ****
6152 HC1     8.061657    6.677309    1.930402 H    975 MOH     0.0372 ****
6153 C1      8.924219    7.140263    1.450983 C    975 MOH     0.1166 ****
6154 HC2     9.711147    7.254980    2.196981 H    975 MOH     0.0372 ****
6155 HC3     8.607253    8.132306    1.128542 H    975 MOH     0.0372 ****
6156 O1      9.307002    6.352752    0.292035 O    975 MOH    -0.6497 ****
6157 HO1     8.613027    6.398884   -0.369110 H    975 MOH     0.4215 ****
6158 HC1    14.747951    2.114726    8.191125 H    976 MOH     0.0372 ****
6159 C1     15.355901    2.985520    7.942931 C    976 MOH     0.1166 ****
6160 HC2    16.405523    2.716076    7.828379 H    976 MOH     0.0372 ****
6161 HC3    15.299320    3.707711    8.758225 H    976 MOH     0.0372 ****
6162 O1     14.960993    3.547678    6.733071 O    976 MOH    -0.6497 ****
6163 HO1    15.242740    2.949186    6.037278 H    976 MOH     0.4215 ****
6164 HC1    16.220771   -0.891206  -12.517911 H    977 MOH     0.0372 ****
6165 C1     17.144532   -0.703004  -13.065919 C    977 MOH     0.1166 ****
6166 HC2    17.735161   -1.617888  -13.028442 H    977 MOH     0.0372 ****
6167 HC3    17.667034    0.120433  -12.578722 H    977 MOH     0.0372 ****
6168 O1     16.871445   -0.350685  -14.420028 O    977 MOH    -0.6497 ****
6169 HO1    17.653177    0.071443  -14.783481 H    977 MOH     0.4215 ****
6170 HC1    20.328618    8.364599   -2.496794 H    978 MOH     0.0372 ****
6171 C1     19.313637    7.981254   -2.600739 C    978 MOH     0.1166 ****
6172 HC2    18.592526    8.798567   -2.579525 H    978 MOH     0.0372 ****
6173 HC3    19.078655    7.286415   -1.794637 H    978 MOH     0.0372 ****
6174 O1     19.186042    7.269269   -3.783021 O    978 MOH    -0.6497 ****
6175 HO1    19.906575    6.636076   -3.814841 H    978 MOH     0.4215 ****
6176 HC1    13.807447   -5.629336   -1.607254 H    979 MOH     0.0372 ****
6177 C1     14.664235   -5.887349   -2.230922 C    979 MOH     0.1166 ****
6178 HC2    14.850142   -5.094122   -2.954292 H    979 MOH     0.0372 ****
6179 HC3    14.418284   -6.791210   -2.788122 H    979 MOH     0.0372 ****
6180 O1     15.827596   -6.078001   -1.429770 O    979 MOH    -0.6497 ****
6181 HO1    16.523880   -6.425828   -1.991212 H    979 MOH     0.4215 ****
6182 HC1    19.862119   -5.969407   -2.423962 H    980 MOH     0.0372 ****
6183 C1     19.363866   -6.745078   -3.003789 C    980 MOH     0.1166 ****
6184 HC2    20.090750   -7.490540   -3.326230 H    980 MOH     0.0372 ****
6185 HC3    18.901409   -6.271102   -3.869995 H    980 MOH     0.0372 ****
6186 O1     18.388722   -7.375822   -2.206880 O    980 MOH    -0.6497 ****
6187 HO1    18.860417   -7.744878   -1.457347 H    980 MOH     0.4215 ****
6188 HC1    23.202668    0.082466    4.763071 H    981 MOH     0.0372 ****
6189 C1     22.580284    0.976938    4.753879 C    981 MOH     0.1166 ****
6190 HC2    23.024267    1.764041    5.363405 H    981 MOH     0.0372 ****
6191 HC3    21.608604    0.698921    5.163294 H    981 MOH     0.0372 ****
6192 O1     22.400729    1.429686    3.432297 O    981 MOH    -0.6497 ****
6193 HO1    23.258094    1.705253    3.099249 H    981 MOH     0.4215 ****
6194 HC1    19.186620    5.729356   -6.717514 H    982 MOH     0.0372 ****
6195 C1     19.779558    5.390919   -7.566750 C    982 MOH     0.1166 ****
6196 HC2    20.146753    4.395201   -7.318555 H    982 MOH     0.0372 ****
6197 HC3    20.626531    6.060854   -7.718777 H    982 MOH     0.0372 ****
6198 O1     18.975310    5.339888   -8.737011 O    982 MOH    -0.6497 ****
6199 HO1    19.382341    4.689548   -9.314717 H    982 MOH     0.4215 ****
6200 HC1    14.943095    6.050240   -1.055003 H    983 MOH     0.0372 ****
6201 C1     15.124383    5.012064   -0.775696 C    983 MOH     0.1166 ****
6202 HC2    14.465049    4.374789   -1.364716 H    983 MOH     0.0372 ****
6203 HC3    14.899794    4.857338    0.280014 H    983 MOH     0.0372 ****
6204 O1     16.454598    4.616472   -1.016819 O    983 MOH    -0.6497 ****
6205 HO1    16.634154    4.724657   -1.953736 H    983 MOH     0.4215 ****
6206 HC1    18.831549    0.262095    2.603567 H    984 MOH     0.0372 ****
6207 C1     19.285346    1.141462    3.060358 C    984 MOH     0.1166 ****
6208 HC2    20.122504    1.458263    2.438104 H    984 MOH     0.0372 ****
6209 HC3    19.589033    0.892431    4.077178 H    984 MOH     0.0372 ****
6210 O1     18.335028    2.139221    3.025003 O    984 MOH    -0.6497 ****
6211 HO1    18.007093    2.194743    2.124149 H    984 MOH     0.4215 ****
6212 HC1    26.194497    3.581154    7.980407 H    985 MOH     0.0372 ****
6213 C1     25.941618    4.445824    8.594176 C    985 MOH     0.1166 ****
6214 HC2    26.749331    4.629127    9.301990 H    985 MOH     0.0372 ****
6215 HC3    25.023631    4.213122    9.132991 H    985 MOH     0.0372 ****
6216 O1     25.749360    5.554218    7.737870 O    985 MOH    -0.6497 ****
6217 HO1    25.064045    5.283141    7.122687 H    985 MOH     0.4215 ****
6218 HC1    22.453845   -3.678317    4.446288 H    986 MOH     0.0372 ****
6219 C1     23.276569   -4.369073    4.261026 C    986 MOH     0.1166 ****
6220 HC2    23.551965   -4.247823    3.213801 H    986 MOH     0.0372 ****
6221 HC3    22.968264   -5.408882    4.367799 H    986 MOH     0.0372 ****
6222 O1     24.366606   -4.058396    5.145616 O    986 MOH    -0.6497 ****
6223 HO1    24.977443   -4.798959    5.158344 H    986 MOH     0.4215 ****
6224 HC1    18.201083   -2.336813   -4.748929 H    987 MOH     0.0372 ****
6225 C1     19.128307   -2.513585   -4.205164 C    987 MOH     0.1166 ****
6226 HC2    19.062489   -3.438267   -3.631700 H    987 MOH     0.0372 ****
6227 HC3    19.351742   -1.677084   -3.542605 H    987 MOH     0.0372 ****
6228 O1     20.131742   -2.615647   -5.135716 O    987 MOH    -0.6497 ****
6229 HO1    20.941764   -2.274760   -4.748929 H    987 MOH     0.4215 ****
6230 HC1    16.104147   -2.192702  -10.021824 H    988 MOH     0.0372 ****
6231 C1     16.384161   -3.101054   -9.487959 C    988 MOH     0.1166 ****
6232 HC2    17.192452   -3.596668  -10.025360 H    988 MOH     0.0372 ****
6233 HC3    15.553354   -3.806915   -9.464624 H    988 MOH     0.0372 ****
6234 O1     16.821793   -2.839775   -8.168497 O    988 MOH    -0.6497 ****
6235 HO1    16.474228   -3.544412   -7.616954 H    988 MOH     0.4215 ****
6236 HC1    27.287999   -2.720567    3.381385 H    989 MOH     0.0372 ****
6237 C1     26.456614   -2.037159    3.211679 C    989 MOH     0.1166 ****
6238 HC2    25.534586   -2.497255    3.568768 H    989 MOH     0.0372 ****
6239 HC3    26.386177   -1.848956    2.140412 H    989 MOH     0.0372 ****
6240 O1     26.784549   -0.816497    3.863632 O    989 MOH    -0.6497 ****
6241 HO1    27.397695   -1.013680    4.575688 H    989 MOH     0.4215 ****
6242 HC1    19.794569   -0.491123   11.864545 H    990 MOH     0.0372 ****
6243 C1     18.903141    0.135539   11.832725 C    990 MOH     0.1166 ****
6244 HC2    18.014598   -0.495205   11.792420 H    990 MOH     0.0372 ****
6245 HC3    18.912378    0.753626   10.934699 H    990 MOH     0.0372 ****
6246 O1     18.913533    0.983062   12.954196 O    990 MOH    -0.6497 ****
6247 HO1    19.669284    1.563183   12.837524 H    990 MOH     0.4215 ****
6248 HC1    27.047821    0.105736   -0.596091 H    991 MOH     0.0372 ****
6249 C1     26.038035   -0.215147   -0.852063 C    991 MOH     0.1166 ****
6250 HC2    25.340596    0.215555   -0.132936 H    991 MOH     0.0372 ****
6251 HC3    25.956629   -1.301496   -0.817415 H    991 MOH     0.0372 ****
6252 O1     25.682965    0.244132   -2.124149 O    991 MOH    -0.6497 ****
6253 HO1    26.281677   -0.163299   -2.753474 H    991 MOH     0.4215 ****
6254 HC1    21.451565    0.770773   10.451038 H    992 MOH     0.0372 ****
6255 C1     21.676154    1.836709   10.501243 C    992 MOH     0.1166 ****
6256 HC2    21.317042    2.384578    9.630087 H    992 MOH     0.0372 ****
6257 HC3    22.762150    1.883249   10.429118 H    992 MOH     0.0372 ****
6258 O1     21.315310    2.434793   11.767671 O    992 MOH    -0.6497 ****
6259 HO1    21.243141    3.383562   11.641806 H    992 MOH     0.4215 ****
6260 HC1    20.538197  -12.680192    1.818679 H    993 MOH     0.0372 ****
6261 C1     21.119588  -11.922891    2.345473 C    993 MOH     0.1166 ****
6262 HC2    22.173253  -12.167024    2.208295 H    993 MOH     0.0372 ****
6263 HC3    20.889803  -11.912277    3.410376 H    993 MOH     0.0372 ****
6264 O1     20.991417  -10.662629    1.793223 O    993 MOH    -0.6497 ****
6265 HO1    21.789892  -10.186203    2.034346 H    993 MOH     0.4215 ****
6266 HC1    22.851062    7.214156    0.678116 H    994 MOH     0.0372 ****
6267 C1     22.358582    7.650573   -0.190919 C    994 MOH     0.1166 ****
6268 HC2    21.416346    8.138021    0.059397 H    994 MOH     0.0372 ****
6269 HC3    22.106280    6.816113   -0.845700 H    994 MOH     0.0372 ****
6270 O1     23.196317    8.575664   -0.890954 O    994 MOH    -0.6497 ****
6271 HO1    22.655340    9.275401   -1.262893 H    994 MOH     0.4215 ****
6272 HC1    20.758744  -13.002708   -2.843983 H    995 MOH     0.0372 ****
6273 C1     20.725835  -11.917584   -2.942978 C    995 MOH     0.1166 ****
6274 HC2    21.170973  -11.448507   -2.065459 H    995 MOH     0.0372 ****
6275 HC3    19.688337  -11.591802   -3.017931 H    995 MOH     0.0372 ****
6276 O1     21.411728  -11.540363   -4.108290 O    995 MOH    -0.6497 ****
6277 HO1    21.513341  -10.587103   -4.067985 H    995 MOH     0.4215 ****
6278 HC1    29.192100   -4.185770   -1.660994 H    996 MOH     0.0372 ****
6279 C1     28.286237   -3.861212   -2.172232 C    996 MOH     0.1166 ****
6280 HC2    27.400582   -4.253947   -1.673014 H    996 MOH     0.0372 ****
6281 HC3    28.293743   -4.209448   -3.205315 H    996 MOH     0.0372 ****
6282 O1     28.193284   -2.469086   -2.158090 O    996 MOH    -0.6497 ****
6283 HO1    28.463484   -2.183720   -1.281984 H    996 MOH     0.4215 ****
6284 HC1    21.726383    0.378038    0.323855 H    997 MOH     0.0372 ****
6285 C1     22.389759   -0.443766    0.593263 C    997 MOH     0.1166 ****
6286 HC2    23.405895   -0.057563    0.671045 H    997 MOH     0.0372 ****
6287 HC3    22.375903   -1.226378   -0.165463 H    997 MOH     0.0372 ****
6288 O1     22.011594   -0.870794    1.880197 O    997 MOH    -0.6497 ****
6289 HO1    22.065288   -0.101654    2.451539 H    997 MOH     0.4215 ****
6290 HC1    25.506296    6.577288    4.427196 H    998 MOH     0.0372 ****
6291 C1     25.166814    5.831419    3.708068 C    998 MOH     0.1166 ****
6292 HC2    24.660477    4.994101    4.189608 H    998 MOH     0.0372 ****
6293 HC3    26.053624    5.434601    3.213093 H    998 MOH     0.0372 ****
6294 O1     24.325614    6.451956    2.753474 O    998 MOH    -0.6497 ****
6295 HO1    24.855045    7.136997    2.337695 H    998 MOH     0.4215 ****
6296 HC1    16.212688   -0.658913   -4.553768 H    999 MOH     0.0372 ****
6297 C1     15.582222   -0.972447   -3.722210 C    999 MOH     0.1166 ****
6298 HC2    14.605923   -1.285166   -4.092734 H    999 MOH     0.0372 ****
6299 HC3    15.411904   -0.145336   -3.032074 H    999 MOH     0.0372 ****
6300 O1     16.184398   -2.026545   -3.026417 O    999 MOH    -0.6497 ****
6301 HO1    15.533724   -2.380904   -2.416891 H    999 MOH     0.4215 ****
6302 HC1    18.874850    4.073501   -1.409971 H    1000 MOH     0.0372 ****
6303 C1     19.531298    4.349069   -0.584777 C    1000 MOH     0.1166 ****
6304 HC2    18.984547    4.313143    0.358503 H    1000 MOH     0.0372 ****
6305 HC3    19.877708    5.371731   -0.735391 H    1000 MOH     0.0372 ****
6306 O1     20.650203    3.477051   -0.519723 O    1000 MOH    -0.6497 ****
6307 HO1    21.255266    3.803649    0.150614 H    1000 MOH     0.4215 ****
6308 HC1    22.651299    8.788361    6.357597 H    1001 MOH     0.0372 ****
6309 C1     22.339529    8.369498    7.315020 C    1001 MOH     0.1166 ****
6310 HC2    21.812409    9.115776    7.907575 H    1001 MOH     0.0372 ****
6311 HC3    23.232113    8.035959    7.843229 H    1001 MOH     0.0372 ****
6312 O1     21.524888    7.255389    7.088039 O    1001 MOH    -0.6497 ****
6313 HO1    20.838996    7.496663    6.462249 H    1001 MOH     0.4215 ****
6314 HC1    17.488632    5.712618    5.149859 H    1002 MOH     0.0372 ****
6315 C1     18.070602    5.955118    4.260318 C    1002 MOH     0.1166 ****
6316 HC2    18.034228    5.133314    3.545434 H    1002 MOH     0.0372 ****
6317 HC3    19.097708    6.098413    4.597608 H    1002 MOH     0.0372 ****
6318 O1     17.604680    7.199459    3.728574 O    1002 MOH    -0.6497 ****
6319 HO1    18.020372    7.876743    4.266682 H    1002 MOH     0.4215 ****
6320 HC1    14.705227    1.041441   -6.514575 H    1003 MOH     0.0372 ****
6321 C1     14.571859    0.018779   -6.867421 C    1003 MOH     0.1166 ****
6322 HC2    13.573043   -0.058788   -7.295928 H    1003 MOH     0.0372 ****
6323 HC3    14.645182   -0.698105   -6.050005 H    1003 MOH     0.0372 ****
6324 O1     15.492155   -0.258421   -7.879291 O    1003 MOH    -0.6497 ****
6325 HO1    15.608203   -1.206374   -7.971215 H    1003 MOH     0.4215 ****
6326 HC1    16.892230   -8.233143   -7.556850 H    1004 MOH     0.0372 ****
6327 C1     16.155531   -7.887357   -6.832066 C    1004 MOH     0.1166 ****
6328 HC2    15.884753   -8.695280   -6.151122 H    1004 MOH     0.0372 ****
6329 HC3    15.246781   -7.587703   -7.352496 H    1004 MOH     0.0372 ****
6330 O1     16.595472   -6.805907   -6.037985 O    1004 MOH    -0.6497 ****
6331 HO1    17.542903   -6.874493   -5.902220 H    1004 MOH     0.4215 ****
6332 HC1    17.840816    8.322141   -7.204711 H    1005 MOH     0.0372 ****
6333 C1     16.993266    7.657513   -7.035005 C    1005 MOH     0.1166 ****
6334 HC2    16.127818    8.301321   -6.878735 H    1005 MOH     0.0372 ****
6335 HC3    17.225938    7.055755   -6.156779 H    1005 MOH     0.0372 ****
6336 O1     16.859898    6.955734   -8.250522 O    1005 MOH    -0.6497 ****
6337 HO1    17.705716    6.549936   -8.455583 H    1005 MOH     0.4215 ****
6338 HC1    15.729446  -10.483816   -1.794637 H    1006 MOH     0.0372 ****
6339 C1     16.764635  -10.179671   -1.950907 C    1006 MOH     0.1166 ****
6340 HC2    17.353533  -11.082308   -2.118492 H    1006 MOH     0.0372 ****
6341 HC3    17.137604   -9.622820   -1.092480 H    1006 MOH     0.0372 ****
6342 O1     16.762326   -9.448090   -3.127533 O    1006 MOH    -0.6497 ****
6343 HO1    17.399721   -8.738963   -3.017932 H    1006 MOH     0.4215 ****
6344 HC1    28.791996   -5.291714    2.776102 H    1007 MOH     0.0372 ****
6345 C1     29.175934   -4.694855    1.948787 C    1007 MOH     0.1166 ****
6346 HC2    29.863558   -5.312127    1.370373 H    1007 MOH     0.0372 ****
6347 HC3    29.677074   -3.833043    2.390728 H    1007 MOH     0.0372 ****
6348 O1     28.110723   -4.255172    1.161777 O    1007 MOH    -0.6497 ****
6349 HO1    27.581293   -5.011248    0.900147 H    1007 MOH     0.4215 ****
6350 HC1    19.258211    3.704445    7.376538 H    1008 MOH     0.0372 ****
6351 C1     19.321720    2.781396    6.800246 C    1008 MOH     0.1166 ****
6352 HC2    20.353444    2.577272    6.514575 H    1008 MOH     0.0372 ****
6353 HC3    18.704532    2.893256    5.909292 H    1008 MOH     0.0372 ****
6354 O1     18.803836    1.728115    7.565336 O    1008 MOH    -0.6497 ****
6355 HO1    19.053829    0.903454    7.141072 H    1008 MOH     0.4215 ****
6356 HC1     7.207179    3.012056   -1.105915 H    1009 MOH     0.0372 ****
6357 C1      7.040902    4.082483   -0.987121 C    1009 MOH     0.1166 ****
6358 HC2     7.394240    4.403366   -0.007071 H    1009 MOH     0.0372 ****
6359 HC3     5.973959    4.295589   -1.059246 H    1009 MOH     0.0372 ****
6360 O1      7.727949    4.796917   -1.996870 O    1009 MOH    -0.6497 ****
6361 HO1     7.637305    4.267011   -2.791658 H    1009 MOH     0.4215 ****
6362 HC1    13.870378    9.328065   -3.954848 H    1010 MOH     0.0372 ****
6363 C1     14.741600    8.672827   -3.973940 C    1010 MOH     0.1166 ****
6364 HC2    14.741023    8.101279   -4.901664 H    1010 MOH     0.0372 ****
6365 HC3    14.713887    7.963699   -3.145918 H    1010 MOH     0.0372 ****
6366 O1     15.919972    9.457480   -3.900401 O    1010 MOH    -0.6497 ****
6367 HO1    15.890527    9.968198   -3.087935 H    1010 MOH     0.4215 ****
6368 HC1    28.684032    0.164932    1.511795 H    1011 MOH     0.0372 ****
6369 C1     29.324313   -0.710352    1.620689 C    1011 MOH     0.1166 ****
6370 HC2    29.174202   -1.111252    2.623366 H    1011 MOH     0.0372 ****
6371 HC3    30.362966   -0.397634    1.514623 H    1011 MOH     0.0372 ****
6372 O1     28.944994   -1.652181    0.617305 O    1011 MOH    -0.6497 ****
6373 HO1    28.873980   -2.525424    1.009749 H    1011 MOH     0.4215 ****
6374 HC1    26.819767    2.378455    5.932626 H    1012 MOH     0.0372 ****
6375 C1     27.678287    2.740163    5.366941 C    1012 MOH     0.1166 ****
6376 HC2    27.330145    3.259454    4.474572 H    1012 MOH     0.0372 ****
6377 HC3    28.307599    1.899579    5.073491 H    1012 MOH     0.0372 ****
6378 O1     28.427688    3.629736    6.162436 O    1012 MOH    -0.6497 ****
6379 HO1    28.595120    3.211281    7.010257 H    1012 MOH     0.4215 ****
6380 HC1    27.618820    3.699546   -3.999396 H    1013 MOH     0.0372 ****
6381 C1     27.171951    4.113510   -4.903078 C    1013 MOH     0.1166 ****
6382 HC2    26.144268    4.432352   -4.731251 H    1013 MOH     0.0372 ****
6383 HC3    27.202551    3.341104   -5.672410 H    1013 MOH     0.0372 ****
6384 O1     27.982551    5.177813   -5.291280 O    1013 MOH    -0.6497 ****
6385 HO1    28.164416    5.724049   -4.523362 H    1013 MOH     0.4215 ****
6386 HC1    20.844770    1.447240   -9.405227 H    1014 MOH     0.0372 ****
6387 C1     19.920432    1.962449   -9.666857 C    1014 MOH     0.1166 ****
6388 HC2    19.207404    1.915501   -8.843077 H    1014 MOH     0.0372 ****
6389 HC3    19.484532    1.516234  -10.559932 H    1014 MOH     0.0372 ****
6390 O1     20.158300    3.311710   -9.946164 O    1014 MOH    -0.6497 ****
6391 HO1    20.662904    3.341920  -10.762165 H    1014 MOH     0.4215 ****
6392 HC1    12.566721    8.640575    0.647003 H    1015 MOH     0.0372 ****
6393 C1     12.196063    8.243758    1.591697 C    1015 MOH     0.1166 ****
6394 HC2    13.050541    8.120875    2.257085 H    1015 MOH     0.0372 ****
6395 HC3    11.724367    7.268044    1.475732 H    1015 MOH     0.0372 ****
6396 O1     11.341007    9.179055    2.153847 O    1015 MOH    -0.6497 ****
6397 HO1    11.525759    9.180688    3.095714 H    1015 MOH     0.4215 ****
6398 HC1    11.104293   -8.772439   -8.865705 H    1016 MOH     0.0372 ****
6399 C1     11.618135   -8.463395   -7.955658 C    1016 MOH     0.1166 ****
6400 HC2    12.701244   -8.489523   -8.071624 H    1016 MOH     0.0372 ****
6401 HC3    11.315026   -9.102712   -7.125515 H    1016 MOH     0.0372 ****
6402 O1     11.178771   -7.205991   -7.672816 O    1016 MOH    -0.6497 ****
6403 HO1    10.846795   -6.843874   -8.498009 H    1016 MOH     0.4215 ****
6404 HC1    11.854848    3.965724    6.385174 H    1017 MOH     0.0372 ****
6405 C1     11.788453    3.705262    7.441592 C    1017 MOH     0.1166 ****
6406 HC2    11.896418    2.627078    7.565336 H    1017 MOH     0.0372 ****
6407 HC3    10.804648    4.020021    7.790195 H    1017 MOH     0.0372 ****
6408 O1     12.772258    4.424187    8.164962 O    1017 MOH    -0.6497 ****
6409 HO1    13.594982    4.315184    7.682008 H    1017 MOH     0.4215 ****
6410 HC1    19.401394    6.526665   11.233806 H    1018 MOH     0.0372 ****
6411 C1     19.839025    5.623212   10.808834 C    1018 MOH     0.1166 ****
6412 HC2    20.082667    5.818355    9.765145 H    1018 MOH     0.0372 ****
6413 HC3    19.133503    4.796917   10.902173 H    1018 MOH     0.0372 ****
6414 O1     20.975251    5.325599   11.556246 O    1018 MOH    -0.6497 ****
6415 HO1    21.602830    6.051464   11.508163 H    1018 MOH     0.4215 ****
6416 HC1    12.564412   10.054339   -2.428205 H    1019 MOH     0.0372 ****
6417 C1     13.130793   10.359300   -1.547857 C    1019 MOH     0.1166 ****
6418 HC2    13.516463    9.465645   -1.056417 H    1019 MOH     0.0372 ****
6419 HC3    12.476655   10.883083   -0.851357 H    1019 MOH     0.0372 ****
6420 O1     14.225449   11.173756   -1.953029 O    1019 MOH    -0.6497 ****
6421 HO1    13.874420   12.049040   -2.129806 H    1019 MOH     0.4215 ****
6422 HC1     4.480931    0.649523   -3.031367 H    1020 MOH     0.0372 ****
6423 C1      5.039806    1.281900   -2.341938 C    1020 MOH     0.1166 ****
6424 HC2     5.084839    2.282516   -2.772566 H    1020 MOH     0.0372 ****
6425 HC3     6.053056    0.887532   -2.261327 H    1020 MOH     0.0372 ****
6426 O1      4.374698    1.294147   -1.053589 O    1020 MOH    -0.6497 ****
6427 HO1     4.841775    0.676059   -0.487904 H    1020 MOH     0.4215 ****
6428 HC1    20.492586  -14.556093    0.318905 H    1021 MOH     0.0372 ****
6429 C1     21.330321  -14.327882   -0.340825 C    1021 MOH     0.1166 ****
6430 HC2    21.687701  -13.326449   -0.105359 H    1021 MOH     0.0372 ****
6431 HC3    20.979870  -14.372789   -1.371787 H    1021 MOH     0.0372 ****
6432 O1     22.411121  -15.269711   -0.136471 O    1021 MOH    -0.6497 ****
6433 HO1    23.244237  -14.881467   -0.414364 H    1021 MOH     0.4215 ****
6434 HC1    21.382283    4.312735    7.431692 H    1022 MOH     0.0372 ****
6435 C1     22.307775    4.612389    7.925253 C    1022 MOH     0.1166 ****
6436 HC2    22.751757    3.758334    8.437198 H    1022 MOH     0.0372 ****
6437 HC3    22.061824    5.364383    8.674786 H    1022 MOH     0.0372 ****
6438 O1     23.189966    5.111677    6.899241 O    1022 MOH    -0.6497 ****
6439 HO1    22.999441    6.049831    6.824288 H    1022 MOH     0.4215 ****
6440 HC1    19.799188    8.181704    2.779637 H    1023 MOH     0.0372 ****
6441 C1     20.744888    8.524633    3.199658 C    1023 MOH     0.1166 ****
6442 HC2    20.631150    9.499121    3.675541 H    1023 MOH     0.0372 ****
6443 HC3    21.474659    8.638126    2.397799 H    1023 MOH     0.0372 ****
6444 O1     21.186561    7.602400    4.171930 O    1023 MOH    -0.6497 ****
6445 HO1    22.017945    7.214156    3.889795 H    1023 MOH     0.4215 ****
6446 HC1    19.717205    0.115943   -2.149604 H    1024 MOH     0.0372 ****
6447 C1     20.498937    0.789144   -2.501036 C    1024 MOH     0.1166 ****
6448 HC2    21.058389    0.354359   -3.329059 H    1024 MOH     0.0372 ****
6449 HC3    21.184252    0.994085   -1.679378 H    1024 MOH     0.0372 ****
6450 O1     19.925051    1.988577   -2.946514 O    1024 MOH    -0.6497 ****
6451 HO1    20.120195    2.631977   -2.260620 H    1024 MOH     0.4215 ****
6452 HC1    24.617061   22.856842   -1.878076 H    1025 MOH     0.0372 ****
6453 C1     23.580717   22.995646   -1.571191 C    1025 MOH     0.1166 ****
6454 HC2    23.017223   23.359804   -2.429619 H    1025 MOH     0.0372 ****
6455 HC3    23.510858   23.745599   -0.782767 H    1025 MOH     0.0372 ****
6456 O1     23.055328   21.752939   -1.153998 O    1025 MOH    -0.6497 ****
6457 HO1    22.292649   21.905215   -0.591848 H    1025 MOH     0.4215 ****
6458 HC1    19.115490   12.315871    2.213244 H    1026 MOH     0.0372 ****
6459 C1     18.314705   11.921912    2.839034 C    1026 MOH     0.1166 ****
6460 HC2    17.748902   11.191555    2.259913 H    1026 MOH     0.0372 ****
6461 HC3    17.642092   12.698808    3.200365 H    1026 MOH     0.0372 ****
6462 O1     18.811804   11.180941    3.883431 O    1026 MOH    -0.6497 ****
6463 HO1    19.356245   11.776983    4.402447 H    1026 MOH     0.4215 ****
6464 HC1    25.666684   21.405519    2.790951 H    1027 MOH     0.0372 ****
6465 C1     26.270592   21.957063    3.511492 C    1027 MOH     0.1166 ****
6466 HC2    27.082346   21.321828    3.865046 H    1027 MOH     0.0372 ****
6467 HC3    25.622228   22.242837    4.340222 H    1027 MOH     0.0372 ****
6468 O1     26.775196   23.080970    2.856004 O    1027 MOH    -0.6497 ****
6469 HO1    27.588105   23.342657    3.295118 H    1027 MOH     0.4215 ****
6470 HC1    23.728519   16.084003    7.175720 H    1028 MOH     0.0372 ****
6471 C1     22.708341   15.791289    7.423914 C    1028 MOH     0.1166 ****
6472 HC2    22.547260   15.848852    8.499424 H    1028 MOH     0.0372 ****
6473 HC3    22.499917   14.769035    7.107130 H    1028 MOH     0.0372 ****
6474 O1     21.822108   16.683720    6.822873 O    1028 MOH    -0.6497 ****
6475 HO1    22.273596   17.060125    6.063441 H    1028 MOH     0.4215 ****
6476 HC1    27.525752   20.032172   -7.720899 H    1029 MOH     0.0372 ****
6477 C1     27.571362   19.577383   -8.710848 C    1029 MOH     0.1166 ****
6478 HC2    28.488772   18.998487   -8.819743 H    1029 MOH     0.0372 ****
6479 HC3    27.560970   20.355096   -9.473817 H    1029 MOH     0.0372 ****
6480 O1     26.468046   18.740883   -8.927930 O    1029 MOH    -0.6497 ****
6481 HO1    26.727276   17.853351   -8.670543 H    1029 MOH     0.4215 ****
6482 HC1    18.327407   18.870706    3.379970 H    1030 MOH     0.0372 ****
6483 C1     19.367792   18.898058    3.053994 C    1030 MOH     0.1166 ****
6484 HC2    19.952071   18.258333    3.716553 H    1030 MOH     0.0372 ****
6485 HC3    19.709006   19.931743    3.107734 H    1030 MOH     0.0372 ****
6486 O1     19.434765   18.415917    1.730997 O    1030 MOH    -0.6497 ****
6487 HO1    18.840094   17.663107    1.687157 H    1030 MOH     0.4215 ****
6488 HC1    21.207807   14.188506   -0.779939 H    1031 MOH     0.0372 ****
6489 C1     22.122330   14.494692   -1.287641 C    1031 MOH     0.1166 ****
6490 HC2    22.717578   15.149114   -0.650538 H    1031 MOH     0.0372 ****
6491 HC3    21.846934   15.040928   -2.189910 H    1031 MOH     0.0372 ****
6492 O1     22.824388   13.355271   -1.685742 O    1031 MOH    -0.6497 ****
6493 HO1    23.759118   13.554088   -1.595940 H    1031 MOH     0.4215 ****
6494 HC1    18.153625   13.850885   -5.635641 H    1032 MOH     0.0372 ****
6495 C1     18.196348   14.092568   -4.573567 C    1032 MOH     0.1166 ****
6496 HC2    19.233270   14.030514   -4.242641 H    1032 MOH     0.0372 ****
6497 HC3    17.598791   13.390789   -3.991618 H    1032 MOH     0.0372 ****
6498 O1     17.762758   15.386306   -4.304159 O    1032 MOH    -0.6497 ****
6499 HO1    16.993151   15.577775   -4.845096 H    1032 MOH     0.4215 ****
6500 HC1    29.213924   12.692684    8.798530 H    1033 MOH     0.0372 ****
6501 C1     29.513568   11.645527    8.783681 C    1033 MOH     0.1166 ****
6502 HC2    30.147499   11.456917    7.916768 H    1033 MOH     0.0372 ****
6503 HC3    28.645811   10.991514    8.704485 H    1033 MOH     0.0372 ****
6504 O1     30.218513   11.334442    9.977277 O    1033 MOH    -0.6497 ****
6505 HO1    30.652680   10.486102    9.858483 H    1033 MOH     0.4215 ****
6506 HC1    21.462996   15.960304   -5.248854 H    1034 MOH     0.0372 ****
6507 C1     20.922596   16.829872   -5.622206 C    1034 MOH     0.1166 ****
6508 HC2    20.479191   16.500416   -6.561951 H    1034 MOH     0.0372 ****
6509 HC3    21.645439   17.632897   -5.768577 H    1034 MOH     0.0372 ****
6510 O1     19.931286   17.168310   -4.628721 O    1034 MOH    -0.6497 ****
6511 HO1    19.295623   16.454284   -4.545989 H    1034 MOH     0.4215 ****
6512 HC1    19.906460    9.188281   -9.557962 H    1035 MOH     0.0372 ****
6513 C1     20.319265   10.195838   -9.594732 C    1035 MOH     0.1166 ****
6514 HC2    20.233818   10.666548   -8.615389 H    1035 MOH     0.0372 ****
6515 HC3    19.742493   10.783715  -10.308910 H    1035 MOH     0.0372 ****
6516 O1     21.658718   10.140316  -10.026067 O    1035 MOH    -0.6497 ****
6517 HO1    21.692204    9.479770  -10.721860 H    1035 MOH     0.4215 ****
6518 HC1    27.343886   13.602261   -5.994144 H    1036 MOH     0.0372 ****
6519 C1     27.182805   12.589397   -5.625741 C    1036 MOH     0.1166 ****
6520 HC2    26.431673   12.634305   -4.838024 H    1036 MOH     0.0372 ****
6521 HC3    28.107721   12.188906   -5.210670 H    1036 MOH     0.0372 ****
6522 O1     26.731318   11.742690   -6.682159 O    1036 MOH    -0.6497 ****
6523 HO1    27.136040   10.884553   -6.532252 H    1036 MOH     0.4215 ****
6524 HC1    19.722863   16.289352    4.818933 H    1037 MOH     0.0372 ****
6525 C1     19.331419   15.520212    4.154252 C    1037 MOH     0.1166 ****
6526 HC2    19.830827   15.554097    3.186223 H    1037 MOH     0.0372 ****
6527 HC3    18.259857   15.682695    4.029802 H    1037 MOH     0.0372 ****
6528 O1     19.472292   14.253418    4.739030 O    1037 MOH    -0.6497 ****
6529 HO1    19.026001   14.253009    5.588265 H    1037 MOH     0.4215 ****
6530 HC1    30.077640   17.648410   -0.429921 H    1038 MOH     0.0372 ****
6531 C1     29.014160   17.849268   -0.561443 C    1038 MOH     0.1166 ****
6532 HC2    28.432191   16.928260   -0.534573 H    1038 MOH     0.0372 ****
6533 HC3    28.849038   18.319979   -1.530886 H    1038 MOH     0.0372 ****
6534 O1     28.563827   18.739658    0.417900 O    1038 MOH    -0.6497 ****
6535 HO1    28.674101   19.634130    0.087681 H    1038 MOH     0.4215 ****
6536 HC1    29.558024    9.320145    1.977071 H    1039 MOH     0.0372 ****
6537 C1     29.372118    9.905981    1.076924 C    1039 MOH     0.1166 ****
6538 HC2    29.390015    9.282178    0.183141 H    1039 MOH     0.0372 ****
6539 HC3    30.119786   10.691451    0.968029 H    1039 MOH     0.0372 ****
6540 O1     28.129660   10.494267    1.206324 O    1039 MOH    -0.6497 ****
6541 HO1    27.831170   10.604903    0.300521 H    1039 MOH     0.4215 ****
6542 HC1    28.988180   21.247935   -5.690088 H    1040 MOH     0.0372 ****
6543 C1     28.750889   20.961345   -4.664783 C    1040 MOH     0.1166 ****
6544 HC2    29.512991   20.298758   -4.255368 H    1040 MOH     0.0372 ****
6545 HC3    27.797683   20.432664   -4.683875 H    1040 MOH     0.0372 ****
6546 O1     28.649275   22.087702   -3.826862 O    1040 MOH    -0.6497 ****
6547 HO1    29.422924   22.644145   -3.946363 H    1040 MOH     0.4215 ****
6548 HC1    26.679356    6.265631    0.661852 H    1041 MOH     0.0372 ****
6549 C1     26.272324    7.266248    0.516895 C    1041 MOH     0.1166 ****
6550 HC2    25.226743    7.220524    0.211425 H    1041 MOH     0.0372 ****
6551 HC3    26.828890    7.723894   -0.299813 H    1041 MOH     0.0372 ****
6552 O1     26.427054    8.090093    1.673722 O    1041 MOH    -0.6497 ****
6553 HO1    26.709955    8.970276    1.413507 H    1041 MOH     0.4215 ****
6554 HC1    26.085262   10.671039    2.884289 H    1042 MOH     0.0372 ****
6555 C1     26.173597   11.656958    3.340373 C    1042 MOH     0.1166 ****
6556 HC2    25.572575   11.688802    4.248298 H    1042 MOH     0.0372 ****
6557 HC3    25.821413   12.392214    2.617002 H    1042 MOH     0.0372 ****
6558 O1     27.513627   11.860674    3.647964 O    1042 MOH    -0.6497 ****
6559 HO1    27.998601   11.394047    2.964192 H    1042 MOH     0.4215 ****
6560 HC1    28.048831    5.833705    3.698169 H    1043 MOH     0.0372 ****
6561 C1     29.125012    5.841870    3.528463 C    1043 MOH     0.1166 ****
6562 HC2    29.545323    6.702049    4.048187 H    1043 MOH     0.0372 ****
6563 HC3    29.328816    5.902291    2.459318 H    1043 MOH     0.0372 ****
6564 O1     29.718528    4.697142    4.029095 O    1043 MOH    -0.6497 ****
6565 HO1    29.256647    4.435863    4.828125 H    1043 MOH     0.4215 ****
6566 HC1    24.695003   20.501658   -3.703118 H    1044 MOH     0.0372 ****
6567 C1     24.112457   19.628823   -3.407547 C    1044 MOH     0.1166 ****
6568 HC2    24.448475   18.713938   -3.894744 H    1044 MOH     0.0372 ****
6569 HC3    23.092279   19.808860   -3.744837 H    1044 MOH     0.0372 ****
6570 O1     24.105528   19.481853   -2.004648 O    1044 MOH    -0.6497 ****
6571 HO1    23.919044   20.343666   -1.623517 H    1044 MOH     0.4215 ****
6572 HC1    23.864196   17.487152    0.567807 H    1045 MOH     0.0372 ****
6573 C1     24.895921   17.203420    0.362039 C    1045 MOH     0.1166 ****
6574 HC2    25.166698   16.377533    1.018941 H    1045 MOH     0.0372 ****
6575 HC3    25.544285   18.054209    0.572757 H    1045 MOH     0.0372 ****
6576 O1     25.033908   16.884169   -0.999849 O    1045 MOH    -0.6497 ****
6577 HO1    24.737150   17.676988   -1.452397 H    1045 MOH     0.4215 ****
6578 HC1    29.358261   16.759654   -5.118746 H    1046 MOH     0.0372 ****
6579 C1     29.372695   17.467148   -5.948182 C    1046 MOH     0.1166 ****
6580 HC2    28.381962   17.898258   -6.089603 H    1046 MOH     0.0372 ****
6581 HC3    29.711600   16.973984   -6.858936 H    1046 MOH     0.0372 ****
6582 O1     30.249690   18.518796   -5.641298 O    1046 MOH    -0.6497 ****
6583 HO1    30.445989   18.525736   -4.701553 H    1046 MOH     0.4215 ****
6584 HC1    25.214618    9.012326    8.759639 H    1047 MOH     0.0372 ****
6585 C1     26.207083    9.033147    8.309212 C    1047 MOH     0.1166 ****
6586 HC2    26.730163    9.944357    8.599126 H    1047 MOH     0.0372 ****
6587 HC3    26.147039    8.977625    7.223096 H    1047 MOH     0.0372 ****
6588 O1     26.942050    7.968435    8.757518 O    1047 MOH    -0.6497 ****
6589 HO1    26.495181    7.172351    8.461947 H    1047 MOH     0.4215 ****
6590 HC1    23.154633   21.241812    1.764939 H    1048 MOH     0.0372 ****
6591 C1     22.915032   20.609027    2.619124 C    1048 MOH     0.1166 ****
6592 HC2    21.869451   20.733543    2.899845 H    1048 MOH     0.0372 ****
6593 HC3    23.547231   20.916438    3.452802 H    1048 MOH     0.0372 ****
6594 O1     23.216986   19.258950    2.303047 O    1048 MOH    -0.6497 ****
6595 HO1    22.754529   18.985832    1.507552 H    1048 MOH     0.4215 ****
6596 HC1    20.561175   13.303424   -7.334819 H    1049 MOH     0.0372 ****
6597 C1     21.349258   13.337717   -8.087180 C    1049 MOH     0.1166 ****
6598 HC2    20.928947   13.729227   -9.014197 H    1049 MOH     0.0372 ****
6599 HC3    21.747053   12.339958   -8.273856 H    1049 MOH     0.0372 ****
6600 O1     22.355580   14.237904   -7.737162 O    1049 MOH    -0.6497 ****
6601 HO1    23.182923   13.772909   -7.880705 H    1049 MOH     0.4215 ****
6602 HC1    23.764892   12.682886  -10.052937 H    1050 MOH     0.0372 ****
6603 C1     24.195018   12.112972   -9.228450 C    1050 MOH     0.1166 ****
6604 HC2    24.970399   11.469164   -9.643522 H    1050 MOH     0.0372 ****
6605 HC3    23.449659   11.464265   -8.768124 H    1050 MOH     0.0372 ****
6606 O1     24.764285   13.007444   -8.288706 O    1050 MOH    -0.6497 ****
6607 HO1    25.178823   12.468148   -7.612004 H    1050 MOH     0.4215 ****
6608 HC1    23.916158   15.843545    3.506543 H    1051 MOH     0.0372 ****
6609 C1     22.906372   16.242811    3.598467 C    1051 MOH     0.1166 ****
6610 HC2    22.293803   15.501433    4.111826 H    1051 MOH     0.0372 ****
6611 HC3    22.505113   16.434688    2.602860 H    1051 MOH     0.0372 ****
6612 O1     22.974499   17.431630    4.360728 O    1051 MOH    -0.6497 ****
6613 HO1    23.308785   18.124836    3.786557 H    1051 MOH     0.4215 ****
6614 HC1    19.659931   23.079746    1.930402 H    1052 MOH     0.0372 ****
6615 C1     20.522493   23.542699    1.450983 C    1052 MOH     0.1166 ****
6616 HC2    21.309421   23.657417    2.196981 H    1052 MOH     0.0372 ****
6617 HC3    20.205527   24.534742    1.128542 H    1052 MOH     0.0372 ****
6618 O1     20.905276   22.755188    0.292035 O    1052 MOH    -0.6497 ****
6619 HO1    20.211301   22.801320   -0.369110 H    1052 MOH     0.4215 ****
6620 HC1    26.346225   18.517163    8.191125 H    1053 MOH     0.0372 ****
6621 C1     26.954175   19.387956    7.942931 C    1053 MOH     0.1166 ****
6622 HC2    28.003797   19.118512    7.828379 H    1053 MOH     0.0372 ****
6623 HC3    26.897594   20.110148    8.758225 H    1053 MOH     0.0372 ****
6624 O1     26.559267   19.950114    6.733071 O    1053 MOH    -0.6497 ****
6625 HO1    26.841014   19.351622    6.037278 H    1053 MOH     0.4215 ****
6626 HC1    27.819045   15.511230  -12.517911 H    1054 MOH     0.0372 ****
6627 C1     28.742806   15.699433  -13.065919 C    1054 MOH     0.1166 ****
6628 HC2    29.333435   14.784548  -13.028442 H    1054 MOH     0.0372 ****
6629 HC3    29.265308   16.522870  -12.578722 H    1054 MOH     0.0372 ****
6630 O1     28.469719   16.051751  -14.420028 O    1054 MOH    -0.6497 ****
6631 HO1    29.251452   16.473880  -14.783481 H    1054 MOH     0.4215 ****
6632 HC1    25.405721   10.773101   -1.607254 H    1055 MOH     0.0372 ****
6633 C1     26.262509   10.515088   -2.230922 C    1055 MOH     0.1166 ****
6634 HC2    26.448416   11.308314   -2.954292 H    1055 MOH     0.0372 ****
6635 HC3    26.016558    9.611226   -2.788122 H    1055 MOH     0.0372 ****
6636 O1     27.425870   10.324436   -1.429770 O    1055 MOH    -0.6497 ****
6637 HO1    28.122154    9.976608   -1.991212 H    1055 MOH     0.4215 ****
6638 HC1    26.541369   22.452676   -1.055003 H    1056 MOH     0.0372 ****
6639 C1     26.722657   21.414501   -0.775696 C    1056 MOH     0.1166 ****
6640 HC2    26.063323   20.777225   -1.364716 H    1056 MOH     0.0372 ****
6641 HC3    26.498068   21.259775    0.280014 H    1056 MOH     0.0372 ****
6642 O1     28.052872   21.018908   -1.016819 O    1056 MOH    -0.6497 ****
6643 HO1    28.232428   21.127094   -1.953736 H    1056 MOH     0.4215 ****
6644 HC1    22.262626   28.137125    0.274357 H    1057 MOH     0.0372 ****
6645 C1     21.355032   28.073439    0.873984 C    1057 MOH     0.1166 ****
6646 HC2    20.744195   27.226732    0.561443 H    1057 MOH     0.0372 ****
6647 HC3    20.805972   29.005469    0.741755 H    1057 MOH     0.0372 ****
6648 O1     21.726845   27.890135    2.198395 O    1057 MOH    -0.6497 ****
6649 HO1    22.253966   27.087519    2.196981 H    1057 MOH     0.4215 ****
6650 HC1    27.702421   14.209735  -10.021824 H    1058 MOH     0.0372 ****
6651 C1     27.982436   13.301382   -9.487959 C    1058 MOH     0.1166 ****
6652 HC2    28.790726   12.805769  -10.025360 H    1058 MOH     0.0372 ****
6653 HC3    27.151629   12.595521   -9.464624 H    1058 MOH     0.0372 ****
6654 O1     28.420067   13.562661   -8.168497 O    1058 MOH    -0.6497 ****
6655 HO1    28.072502   12.858025   -7.616954 H    1058 MOH     0.4215 ****
6656 HC1    31.392843   15.911314   11.864545 H    1059 MOH     0.0372 ****
6657 C1     30.501415   16.537975   11.832725 C    1059 MOH     0.1166 ****
6658 HC2    29.612873   15.907231   11.792420 H    1059 MOH     0.0372 ****
6659 HC3    30.510652   17.156063   10.934699 H    1059 MOH     0.0372 ****
6660 O1     30.511807   17.385498   12.954196 O    1059 MOH    -0.6497 ****
6661 HO1    31.267558   17.965619   12.837524 H    1059 MOH     0.4215 ****
6662 HC1    27.291925   15.079304    6.900655 H    1060 MOH     0.0372 ****
6663 C1     27.637180   14.236271    6.303150 C    1060 MOH     0.1166 ****
6664 HC2    28.377343   13.704324    6.902069 H    1060 MOH     0.0372 ****
6665 HC3    28.078853   14.622066    5.384618 H    1060 MOH     0.0372 ****
6666 O1     26.584670   13.318529    5.969396 O    1060 MOH    -0.6497 ****
6667 HO1    26.863531   12.805361    5.207842 H    1060 MOH     0.4215 ****
6668 HC1    27.810963   15.743524   -4.553768 H    1061 MOH     0.0372 ****
6669 C1     27.180496   15.429989   -3.722210 C    1061 MOH     0.1166 ****
6670 HC2    26.204197   15.117271   -4.092734 H    1061 MOH     0.0372 ****
6671 HC3    27.010178   16.257100   -3.032074 H    1061 MOH     0.0372 ****
6672 O1     27.782672   14.375892   -3.026417 O    1061 MOH    -0.6497 ****
6673 HO1    27.131999   14.021532   -2.416891 H    1061 MOH     0.4215 ****
6674 HC1    19.811197   10.408127   -1.356938 H    1062 MOH     0.0372 ****
6675 C1     20.454943   11.192372   -1.753625 C    1062 MOH     0.1166 ****
6676 HC2    20.489006   11.993763   -1.016112 H    1062 MOH     0.0372 ****
6677 HC3    20.055994   11.632463   -2.668621 H    1062 MOH     0.0372 ****
6678 O1     21.766683   10.727785   -1.984141 O    1062 MOH    -0.6497 ****
6679 HO1    22.208933   11.514888   -2.309411 H    1062 MOH     0.4215 ****
6680 HC1    26.581206   17.548798    2.821356 H    1063 MOH     0.0372 ****
6681 C1     26.744019   17.324669    3.875652 C    1063 MOH     0.1166 ****
6682 HC2    27.311554   16.397946    3.967576 H    1063 MOH     0.0372 ****
6683 HC3    25.760214   17.207094    4.329615 H    1063 MOH     0.0372 ****
6684 O1     27.436839   18.401220    4.467501 O    1063 MOH    -0.6497 ****
6685 HO1    28.275152   18.491851    4.009296 H    1063 MOH     0.4215 ****
6686 HC1    24.516602   11.482636    7.580892 H    1064 MOH     0.0372 ****
6687 C1     24.123426   11.917421    8.499424 C    1064 MOH     0.1166 ****
6688 HC2    23.939251   12.982132    8.358002 H    1064 MOH     0.0372 ****
6689 HC3    24.822597   11.773309    9.323203 H    1064 MOH     0.0372 ****
6690 O1     22.958911   11.256467    8.828228 O    1064 MOH    -0.6497 ****
6691 HO1    22.534558   11.705948    9.562912 H    1064 MOH     0.4215 ****
6692 HC1    26.303501   17.443878   -6.514575 H    1065 MOH     0.0372 ****
6693 C1     26.170133   16.421216   -6.867421 C    1065 MOH     0.1166 ****
6694 HC2    25.171317   16.343649   -7.295928 H    1065 MOH     0.0372 ****
6695 HC3    26.243457   15.704332   -6.050005 H    1065 MOH     0.0372 ****
6696 O1     27.090429   16.144015   -7.879291 O    1065 MOH    -0.6497 ****
6697 HO1    27.206477   15.196063   -7.971215 H    1065 MOH     0.4215 ****
6698 HC1    28.490504    8.169293   -7.556850 H    1066 MOH     0.0372 ****
6699 C1     27.753805    8.515079   -6.832066 C    1066 MOH     0.1166 ****
6700 HC2    27.483028    7.707156   -6.151122 H    1066 MOH     0.0372 ****
6701 HC3    26.845056    8.814734   -7.352496 H    1066 MOH     0.0372 ****
6702 O1     28.193746    9.596529   -6.037985 O    1066 MOH    -0.6497 ****
6703 HO1    29.141178    9.527944   -5.902220 H    1066 MOH     0.4215 ****
6704 HC1    27.327720    5.918620   -1.794637 H    1067 MOH     0.0372 ****
6705 C1     28.362909    6.222765   -1.950907 C    1067 MOH     0.1166 ****
6706 HC2    28.951807    5.320128   -2.118492 H    1067 MOH     0.0372 ****
6707 HC3    28.735878    6.779616   -1.092480 H    1067 MOH     0.0372 ****
6708 O1     28.360600    6.954346   -3.127533 O    1067 MOH    -0.6497 ****
6709 HO1    28.997995    7.663474   -3.017932 H    1067 MOH     0.4215 ****
6710 HC1    18.805453   19.414492   -1.105915 H    1068 MOH     0.0372 ****
6711 C1     18.639176   20.484919   -0.987121 C    1068 MOH     0.1166 ****
6712 HC2    18.992514   20.805803   -0.007071 H    1068 MOH     0.0372 ****
6713 HC3    17.572233   20.698025   -1.059246 H    1068 MOH     0.0372 ****
6714 O1     19.326223   21.199354   -1.996870 O    1068 MOH    -0.6497 ****
6715 HO1    19.235579   20.669448   -2.791658 H    1068 MOH     0.4215 ****
6716 HC1    21.283440   18.965419   -1.429770 H    1069 MOH     0.0372 ****
6717 C1     21.550754   17.960720   -1.100965 C    1069 MOH     0.1166 ****
6718 HC2    22.495299   17.671272   -1.561292 H    1069 MOH     0.0372 ****
6719 HC3    20.788074   17.247102   -1.410678 H    1069 MOH     0.0372 ****
6720 O1     21.718185   17.968477    0.328098 O    1069 MOH    -0.6497 ****
6721 HO1    20.889687   18.156271    0.774989 H    1069 MOH     0.4215 ****
6722 HC1    24.164996   25.043012    0.647003 H    1070 MOH     0.0372 ****
6723 C1     23.794337   24.646194    1.591697 C    1070 MOH     0.1166 ****
6724 HC2    24.648815   24.523312    2.257085 H    1070 MOH     0.0372 ****
6725 HC3    23.322641   23.670481    1.475732 H    1070 MOH     0.0372 ****
6726 O1     22.939281   25.581491    2.153847 O    1070 MOH    -0.6497 ****
6727 HO1    23.124033   25.583124    3.095714 H    1070 MOH     0.4215 ****
6728 HC1    24.048948   11.988456   12.798633 H    1071 MOH     0.0372 ****
6729 C1     24.943264   11.545915   13.238453 C    1071 MOH     0.1166 ****
6730 HC2    25.009081   11.819033   14.291335 H    1071 MOH     0.0372 ****
6731 HC3    25.833538   11.915788   12.729336 H    1071 MOH     0.0372 ****
6732 O1     24.891879   10.133376   13.122488 O    1071 MOH    -0.6497 ****
6733 HO1    25.797165    9.825148   13.210876 H    1071 MOH     0.4215 ****
6734 HC1    22.702567    7.629997   -8.865705 H    1072 MOH     0.0372 ****
6735 C1     23.216409    7.939041   -7.955658 C    1072 MOH     0.1166 ****
6736 HC2    24.299518    7.912913   -8.071624 H    1072 MOH     0.0372 ****
6737 HC3    22.913300    7.299724   -7.125515 H    1072 MOH     0.0372 ****
6738 O1     22.777046    9.196446   -7.672816 O    1072 MOH    -0.6497 ****
6739 HO1    22.445069    9.558562   -8.498009 H    1072 MOH     0.4215 ****
6740 HC1    23.453123   20.368160    6.385174 H    1073 MOH     0.0372 ****
6741 C1     23.386727   20.107698    7.441592 C    1073 MOH     0.1166 ****
6742 HC2    23.494692   19.029514    7.565336 H    1073 MOH     0.0372 ****
6743 HC3    22.402922   20.422457    7.790195 H    1073 MOH     0.0372 ****
6744 O1     24.370532   20.826623    8.164962 O    1073 MOH    -0.6497 ****
6745 HO1    25.193256   20.717621    7.682008 H    1073 MOH     0.4215 ****
6746 HC1    27.779785   15.731276   10.600945 H    1074 MOH     0.0372 ****
6747 C1     27.369289   14.774751   10.924093 C    1074 MOH     0.1166 ****
6748 HC2    28.148135   14.012143   10.945306 H    1074 MOH     0.0372 ****
6749 HC3    26.584093   14.495917   10.221936 H    1074 MOH     0.0372 ****
6750 O1     26.773464   14.919271   12.179914 O    1074 MOH    -0.6497 ****
6751 HO1    27.394115   15.368344   12.758328 H    1074 MOH     0.4215 ****
6752 HC1    24.554130   10.838829   -5.132181 H    1075 MOH     0.0372 ****
6753 C1     23.671938   11.422216   -4.871258 C    1075 MOH     0.1166 ****
6754 HC2    23.976202   12.420791   -4.560131 H    1075 MOH     0.0372 ****
6755 HC3    23.136735   10.932318   -4.058086 H    1075 MOH     0.0372 ****
6756 O1     22.850946   11.477329   -6.038692 O    1075 MOH    -0.6497 ****
6757 HO1    22.760302   10.588573   -6.391538 H    1075 MOH     0.4215 ****
6758 HC1    26.284448   12.701666   -0.065761 H    1076 MOH     0.0372 ****
6759 C1     25.972679   13.745148   -0.101116 C    1076 MOH     0.1166 ****
6760 HC2    26.778660   14.402428    0.226981 H    1076 MOH     0.0372 ****
6761 HC3    25.129748   13.868439    0.577706 H    1076 MOH     0.0372 ****
6762 O1     25.519459   14.091343   -1.395122 O    1076 MOH    -0.6497 ****
6763 HO1    25.308149   15.027048   -1.365423 H    1076 MOH     0.4215 ****
6764 HC1    22.009747   11.872513    0.750948 H    1077 MOH     0.0372 ****
6765 C1     22.781087   11.579391    1.463711 C    1077 MOH     0.1166 ****
6766 HC2    23.678867   11.323011    0.900854 H    1077 MOH     0.0372 ****
6767 HC3    22.450843   10.691043    2.002527 H    1077 MOH     0.0372 ****
6768 O1     23.041472   12.656758    2.372343 O    1077 MOH    -0.6497 ****
6769 HO1    22.375210   12.631855    3.063187 H    1077 MOH     0.4215 ****
6770 HC1    21.880420   12.483253    6.634076 H    1078 MOH     0.0372 ****
6771 C1     22.363663   12.332609    5.668875 C    1078 MOH     0.1166 ****
6772 HC2    22.819192   11.343015    5.649076 H    1078 MOH     0.0372 ****
6773 HC3    23.124033   13.101749    5.530282 H    1078 MOH     0.0372 ****
6774 O1     21.332515   12.382007    4.682461 O    1078 MOH    -0.6497 ****
6775 HO1    20.819828   13.182991    4.812569 H    1078 MOH     0.4215 ****
6776 HC1    17.580316   13.910897    0.300520 H    1079 MOH     0.0372 ****
6777 C1     18.168058   14.826598    0.362039 C    1079 MOH     0.1166 ****
6778 HC2    18.633980   15.037254   -0.601041 H    1079 MOH     0.0372 ****
6779 HC3    18.956719   14.677996    1.098844 H    1079 MOH     0.0372 ****
6780 O1     17.386326   15.951322    0.737512 O    1079 MOH    -0.6497 ****
6781 HO1    16.986222   15.787206    1.594526 H    1079 MOH     0.4215 ****
6782 HC1     2.883518  -29.807841  -11.622573 H    1080 MOH     0.0372 ****
6783 C1      2.429144  -29.509820  -12.567267 C    1080 MOH     0.1166 ****
6784 HC2     1.348344  -29.644541  -12.519184 H    1080 MOH     0.0372 ****
6785 HC3     2.851764  -30.134439  -13.354984 H    1080 MOH     0.0372 ****
6786 O1      2.710891  -28.152394  -12.826775 O    1080 MOH    -0.6497 ****
6787 HO1     2.441268  -27.958068  -13.727629 H    1080 MOH     0.4215 ****
6788 HC1     3.924481  -26.894173   -8.499282 H    1081 MOH     0.0372 ****
6789 C1      3.582689  -27.563700   -9.288413 C    1081 MOH     0.1166 ****
6790 HC2     3.084436  -28.439801   -8.872634 H    1081 MOH     0.0372 ****
6791 HC3     4.455066  -27.881725   -9.859048 H    1081 MOH     0.0372 ****
6792 O1      2.801535  -26.833752  -10.210480 O    1081 MOH    -0.6497 ****
6793 HO1     2.828670  -27.320792  -11.037088 H    1081 MOH     0.4215 ****
6794 HC1    -0.933922  -29.271403  -13.930569 H    1082 MOH     0.0372 ****
6795 C1     -1.841516  -29.335089  -13.330943 C    1082 MOH     0.1166 ****
6796 HC2    -2.452353  -30.181796  -13.643484 H    1082 MOH     0.0372 ****
6797 HC3    -2.390576  -28.403058  -13.463172 H    1082 MOH     0.0372 ****
6798 O1     -1.469703  -29.518393  -12.006532 O    1082 MOH    -0.6497 ****
6799 HO1    -0.942582  -30.321009  -12.007946 H    1082 MOH     0.4215 ****
6800 HC1     3.732801  -26.823546  -15.566814 H    1083 MOH     0.0372 ****
6801 C1      2.825206  -26.443875  -16.036333 C    1083 MOH     0.1166 ****
6802 HC2     2.955687  -26.463879  -17.118914 H    1083 MOH     0.0372 ****
6803 HC3     2.682023  -25.413048  -15.714599 H    1083 MOH     0.0372 ****
6804 O1      1.684939  -27.237101  -15.662274 O    1083 MOH    -0.6497 ****
6805 HO1     0.911867  -26.732098  -15.924610 H    1083 MOH     0.4215 ****
6806 HC1     0.966138  -30.951753  -16.633131 H    1084 MOH     0.0372 ****
6807 C1      1.532519  -30.646791  -15.752783 C    1084 MOH     0.1166 ****
6808 HC2     1.918189  -31.540447  -15.261344 H    1084 MOH     0.0372 ****
6809 HC3     0.878381  -30.123008  -15.056283 H    1084 MOH     0.0372 ****
6810 O1      2.627175  -29.832336  -16.157955 O    1084 MOH    -0.6497 ****
6811 HO1     2.276146  -28.957051  -16.334732 H    1084 MOH     0.4215 ****
6812 HC1    13.018787  -18.149249  -16.083002 H    1085 MOH     0.0372 ****
6813 C1     11.982443  -18.010445  -15.776118 C    1085 MOH     0.1166 ****
6814 HC2    11.418949  -17.646288  -16.634545 H    1085 MOH     0.0372 ****
6815 HC3    11.912584  -17.260493  -14.987694 H    1085 MOH     0.0372 ****
6816 O1     11.457054  -19.253153  -15.358925 O    1085 MOH    -0.6497 ****
6817 HO1    10.694375  -19.100876  -14.796775 H    1085 MOH     0.4215 ****
6818 HC1     7.517216  -28.690220  -11.991682 H    1086 MOH     0.0372 ****
6819 C1      6.716431  -29.084180  -11.365893 C    1086 MOH     0.1166 ****
6820 HC2     6.150628  -29.814536  -11.945013 H    1086 MOH     0.0372 ****
6821 HC3     6.043818  -28.307283  -11.004561 H    1086 MOH     0.0372 ****
6822 O1      7.213530  -29.825150  -10.321496 O    1086 MOH    -0.6497 ****
6823 HO1     7.757971  -29.229108   -9.802480 H    1086 MOH     0.4215 ****
6824 HC1    25.885038  -22.702034  -13.265889 H    1087 MOH     0.0372 ****
6825 C1     26.318628  -22.508933  -12.285131 C    1087 MOH     0.1166 ****
6826 HC2    26.604416  -21.458102  -12.234220 H    1087 MOH     0.0372 ****
6827 HC3    27.206592  -23.128246  -12.158559 H    1087 MOH     0.0372 ****
6828 O1     25.364268  -22.823692  -11.277504 O    1087 MOH    -0.6497 ****
6829 HO1    25.565185  -23.715307  -10.984762 H    1087 MOH     0.4215 ****
6830 HC1    14.068410  -19.600572  -11.413976 H    1088 MOH     0.0372 ****
6831 C1     14.672318  -19.049029  -10.693434 C    1088 MOH     0.1166 ****
6832 HC2    15.484072  -19.684263  -10.339881 H    1088 MOH     0.0372 ****
6833 HC3    14.023954  -18.763255   -9.864705 H    1088 MOH     0.0372 ****
6834 O1     15.176922  -17.925121  -11.348922 O    1088 MOH    -0.6497 ****
6835 HO1    15.989831  -17.663434  -10.909809 H    1088 MOH     0.4215 ****
6836 HC1    12.130245  -24.922088   -7.029207 H    1089 MOH     0.0372 ****
6837 C1     11.110067  -25.214803   -6.781012 C    1089 MOH     0.1166 ****
6838 HC2    10.948986  -25.157239   -5.705503 H    1089 MOH     0.0372 ****
6839 HC3    10.901643  -26.237056   -7.097796 H    1089 MOH     0.0372 ****
6840 O1     10.223834  -24.322372   -7.382053 O    1089 MOH    -0.6497 ****
6841 HO1    10.675322  -23.945967   -8.141486 H    1089 MOH     0.4215 ****
6842 HC1    24.837724  -19.949216  -16.352410 H    1090 MOH     0.0372 ****
6843 C1     24.886222  -21.036790  -16.403321 C    1090 MOH     0.1166 ****
6844 HC2    24.508057  -21.391557  -17.361451 H    1090 MOH     0.0372 ****
6845 HC3    24.279426  -21.483413  -15.615604 H    1090 MOH     0.0372 ****
6846 O1     26.222788  -21.471166  -16.329782 O    1090 MOH    -0.6497 ****
6847 HO1    26.190456  -22.430549  -16.308569 H    1090 MOH     0.4215 ****
6848 HC1    15.927478  -20.973919  -21.925825 H    1091 MOH     0.0372 ****
6849 C1     15.973088  -21.428708  -22.915775 C    1091 MOH     0.1166 ****
6850 HC2    16.890498  -22.007604  -23.024669 H    1091 MOH     0.0372 ****
6851 HC3    15.962696  -20.650995  -23.678743 H    1091 MOH     0.0372 ****
6852 O1     14.869772  -22.265209  -23.132857 O    1091 MOH    -0.6497 ****
6853 HO1    15.129002  -23.152741  -22.875470 H    1091 MOH     0.4215 ****
6854 HC1     6.729133  -22.135386  -10.824956 H    1092 MOH     0.0372 ****
6855 C1      7.769518  -22.108033  -11.150932 C    1092 MOH     0.1166 ****
6856 HC2     8.353797  -22.747758  -10.488373 H    1092 MOH     0.0372 ****
6857 HC3     8.110732  -21.074348  -11.097192 H    1092 MOH     0.0372 ****
6858 O1      7.836491  -22.590174  -12.473929 O    1092 MOH    -0.6497 ****
6859 HO1     7.241820  -23.342984  -12.517770 H    1092 MOH     0.4215 ****
6860 HC1     9.609533  -26.817585  -14.984865 H    1093 MOH     0.0372 ****
6861 C1     10.524056  -26.511399  -15.492568 C    1093 MOH     0.1166 ****
6862 HC2    11.119304  -25.856977  -14.855465 H    1093 MOH     0.0372 ****
6863 HC3    10.248660  -25.965163  -16.394836 H    1093 MOH     0.0372 ****
6864 O1     11.226114  -27.650820  -15.890669 O    1093 MOH    -0.6497 ****
6865 HO1    12.160844  -27.452003  -15.800866 H    1093 MOH     0.4215 ****
6866 HC1     6.555351  -27.155207  -19.840568 H    1094 MOH     0.0372 ****
6867 C1      6.598075  -26.913524  -18.778493 C    1094 MOH     0.1166 ****
6868 HC2     7.634996  -26.975577  -18.447567 H    1094 MOH     0.0372 ****
6869 HC3     6.000517  -27.615303  -18.196544 H    1094 MOH     0.0372 ****
6870 O1      6.164484  -25.619785  -18.509085 O    1094 MOH    -0.6497 ****
6871 HO1     5.394877  -25.428316  -19.050022 H    1094 MOH     0.4215 ****
6872 HC1     3.952078  -23.217652  -12.125325 H    1095 MOH     0.0372 ****
6873 C1      3.517333  -24.103142  -11.662171 C    1095 MOH     0.1166 ****
6874 HC2     3.105105  -24.777977  -12.412411 H    1095 MOH     0.0372 ****
6875 HC3     2.695187  -23.816960  -11.005268 H    1095 MOH     0.0372 ****
6876 O1      4.422619  -24.805738  -10.866675 O    1095 MOH    -0.6497 ****
6877 HO1     3.896075  -25.523438  -10.506051 H    1095 MOH     0.4215 ****
6878 HC1    17.541171  -17.659351  -14.356247 H    1096 MOH     0.0372 ****
6879 C1     16.875487  -16.800397  -14.271394 C    1096 MOH     0.1166 ****
6880 HC2    15.833369  -17.120464  -14.278466 H    1096 MOH     0.0372 ****
6881 HC3    17.010587  -16.175777  -15.153864 H    1096 MOH     0.0372 ****
6882 O1     17.101231  -16.003496  -13.067899 O    1096 MOH    -0.6497 ****
6883 HO1    17.028484  -16.570553  -12.297859 H    1096 MOH     0.4215 ****
6884 HC1     9.864722  -25.045788  -19.453780 H    1097 MOH     0.0372 ****
6885 C1      9.324323  -24.176219  -19.827132 C    1097 MOH     0.1166 ****
6886 HC2     8.880918  -24.505675  -20.766877 H    1097 MOH     0.0372 ****
6887 HC3    10.047165  -23.373195  -19.973504 H    1097 MOH     0.0372 ****
6888 O1      8.333012  -23.837781  -18.833647 O    1097 MOH    -0.6497 ****
6889 HO1     7.697349  -24.551807  -18.750916 H    1097 MOH     0.4215 ****
6890 HC1    14.481792  -13.405404  -11.622573 H    1098 MOH     0.0372 ****
6891 C1     14.027418  -13.107383  -12.567267 C    1098 MOH     0.1166 ****
6892 HC2    12.946618  -13.242105  -12.519184 H    1098 MOH     0.0372 ****
6893 HC3    14.450038  -13.732003  -13.354984 H    1098 MOH     0.0372 ****
6894 O1     14.309165  -11.749957  -12.826775 O    1098 MOH    -0.6497 ****
6895 HO1    14.039542  -11.555631  -13.727629 H    1098 MOH     0.4215 ****
6896 HC1    15.522755  -10.491736   -8.499282 H    1099 MOH     0.0372 ****
6897 C1     15.180964  -11.161263   -9.288413 C    1099 MOH     0.1166 ****
6898 HC2    14.682710  -12.037364   -8.872634 H    1099 MOH     0.0372 ****
6899 HC3    16.053340  -11.479289   -9.859048 H    1099 MOH     0.0372 ****
6900 O1     14.399809  -10.431315  -10.210480 O    1099 MOH    -0.6497 ****
6901 HO1    14.426944  -10.918356  -11.037088 H    1099 MOH     0.4215 ****
6902 HC1    21.052616  -19.161297  -11.539841 H    1100 MOH     0.0372 ****
6903 C1     21.535281  -20.127212  -11.686919 C    1100 MOH     0.1166 ****
6904 HC2    20.762209  -20.881247  -11.834704 H    1100 MOH     0.0372 ****
6905 HC3    22.099929  -20.369712  -10.787479 H    1100 MOH     0.0372 ****
6906 O1     22.443453  -20.099451  -12.809805 O    1100 MOH    -0.6497 ****
6907 HO1    23.154748  -19.495244  -12.580702 H    1100 MOH     0.4215 ****
6908 HC1    23.617206  -15.889595   -3.403870 H    1101 MOH     0.0372 ****
6909 C1     22.905910  -16.715481   -3.414477 C    1101 MOH     0.1166 ****
6910 HC2    23.267909  -17.446654   -4.137847 H    1101 MOH     0.0372 ****
6911 HC3    21.916909  -16.343159   -3.684592 H    1101 MOH     0.0372 ****
6912 O1     22.842402  -17.289070   -2.129664 O    1101 MOH    -0.6497 ****
6913 HO1    22.566428  -16.605254   -1.515188 H    1101 MOH     0.4215 ****
6914 HC1    19.546886  -14.359889  -20.411910 H    1102 MOH     0.0372 ****
6915 C1     18.966072  -13.978585  -19.571867 C    1102 MOH     0.1166 ****
6916 HC2    19.263407  -12.971436  -19.279832 H    1102 MOH     0.0372 ****
6917 HC3    19.173918  -14.633823  -18.725460 H    1102 MOH     0.0372 ****
6918 O1     17.586782  -14.022267  -19.856831 O    1102 MOH    -0.6497 ****
6919 HO1    17.181482  -14.697102  -19.307409 H    1102 MOH     0.4215 ****
6920 HC1     8.124589  -24.716740   -9.385994 H    1103 MOH     0.0372 ****
6921 C1      7.733145  -25.485879  -10.050674 C    1103 MOH     0.1166 ****
6922 HC2     8.232553  -25.451995  -11.018703 H    1103 MOH     0.0372 ****
6923 HC3     6.661583  -25.323397  -10.175125 H    1103 MOH     0.0372 ****
6924 O1      7.874019  -26.752674   -9.465897 O    1103 MOH    -0.6497 ****
6925 HO1     7.427727  -26.753082   -8.616662 H    1103 MOH     0.4215 ****
6926 HC1    18.479366  -23.357681  -14.634847 H    1104 MOH     0.0372 ****
6927 C1     17.415886  -23.156823  -14.766369 C    1104 MOH     0.1166 ****
6928 HC2    16.833917  -24.077831  -14.739499 H    1104 MOH     0.0372 ****
6929 HC3    17.250764  -22.686113  -15.735813 H    1104 MOH     0.0372 ****
6930 O1     16.965553  -22.266433  -13.787026 O    1104 MOH    -0.6497 ****
6931 HO1    17.075827  -21.371961  -14.117245 H    1104 MOH     0.4215 ****
6932 HC1    22.192305  -20.430133  -17.431455 H    1105 MOH     0.0372 ****
6933 C1     21.788160  -20.084346  -18.382513 C    1105 MOH     0.1166 ****
6934 HC2    20.855162  -20.607721  -18.594645 H    1105 MOH     0.0372 ****
6935 HC3    22.509271  -20.229274  -19.186494 H    1105 MOH     0.0372 ****
6936 O1     21.541632  -18.718348  -18.228364 O    1105 MOH    -0.6497 ****
6937 HO1    22.366088  -18.262742  -18.040274 H    1105 MOH     0.4215 ****
6938 HC1    17.389906  -19.758156  -19.895015 H    1106 MOH     0.0372 ****
6939 C1     17.152615  -20.044746  -18.869710 C    1106 MOH     0.1166 ****
6940 HC2    17.914717  -20.707333  -18.460295 H    1106 MOH     0.0372 ****
6941 HC3    16.199410  -20.573428  -18.888802 H    1106 MOH     0.0372 ****
6942 O1     17.051001  -18.918389  -18.031788 O    1106 MOH    -0.6497 ****
6943 HO1    17.824651  -18.361947  -18.151289 H    1106 MOH     0.4215 ****
6944 HC1    24.431847  -18.542801  -19.098105 H    1107 MOH     0.0372 ****
6945 C1     24.852158  -17.659351  -18.617273 C    1107 MOH     0.1166 ****
6946 HC2    25.105615  -16.917564  -19.374584 H    1107 MOH     0.0372 ****
6947 HC3    25.738968  -17.942268  -18.050880 H    1107 MOH     0.0372 ****
6948 O1     23.846991  -17.162922  -17.794200 O    1107 MOH    -0.6497 ****
6949 HO1    24.203216  -16.966554  -16.925166 H    1107 MOH     0.4215 ****
6950 HC1    18.783052  -16.234973   -6.522211 H    1108 MOH     0.0372 ****
6951 C1     18.740328  -15.360914   -7.172042 C    1108 MOH     0.1166 ****
6952 HC2    19.541113  -14.660768   -6.933747 H    1108 MOH     0.0372 ****
6953 HC3    17.800979  -14.844888   -6.976881 H    1108 MOH     0.0372 ****
6954 O1     18.740905  -15.715273   -8.563629 O    1108 MOH    -0.6497 ****
6955 HO1    18.850024  -14.922863   -9.094666 H    1108 MOH     0.4215 ****
6956 HC1    13.096729  -20.504434  -17.908045 H    1109 MOH     0.0372 ****
6957 C1     12.514183  -21.377269  -17.612474 C    1109 MOH     0.1166 ****
6958 HC2    12.850201  -22.292153  -18.099671 H    1109 MOH     0.0372 ****
6959 HC3    11.494005  -21.197231  -17.949764 H    1109 MOH     0.0372 ****
6960 O1     12.507255  -21.524238  -16.209574 O    1109 MOH    -0.6497 ****
6961 HO1    12.320770  -20.662426  -15.828444 H    1109 MOH     0.4215 ****
6962 HC1    12.265922  -23.518939  -13.637120 H    1110 MOH     0.0372 ****
6963 C1     13.297647  -23.802672  -13.842888 C    1110 MOH     0.1166 ****
6964 HC2    13.568424  -24.628558  -13.185986 H    1110 MOH     0.0372 ****
6965 HC3    13.946011  -22.951882  -13.632170 H    1110 MOH     0.0372 ****
6966 O1     13.435634  -24.121922  -15.204775 O    1110 MOH    -0.6497 ****
6967 HO1    13.138876  -23.329104  -15.657324 H    1110 MOH     0.4215 ****
6968 HC1    17.759987  -24.246438  -19.323672 H    1111 MOH     0.0372 ****
6969 C1     17.774421  -23.538943  -20.153109 C    1111 MOH     0.1166 ****
6970 HC2    16.783688  -23.107833  -20.294530 H    1111 MOH     0.0372 ****
6971 HC3    18.113326  -24.032107  -21.063862 H    1111 MOH     0.0372 ****
6972 O1     18.651416  -22.487296  -19.846224 O    1111 MOH    -0.6497 ****
6973 HO1    18.847715  -22.480356  -18.906479 H    1111 MOH     0.4215 ****
6974 HC1    11.556359  -19.764280  -12.439988 H    1112 MOH     0.0372 ****
6975 C1     11.316758  -20.397064  -11.585803 C    1112 MOH     0.1166 ****
6976 HC2    10.271177  -20.272549  -11.305082 H    1112 MOH     0.0372 ****
6977 HC3    11.948957  -20.089653  -10.752124 H    1112 MOH     0.0372 ****
6978 O1     11.618712  -21.747142  -11.901880 O    1112 MOH    -0.6497 ****
6979 HO1    11.156255  -22.020260  -12.697375 H    1112 MOH     0.4215 ****
6980 HC1     8.962901  -27.702668  -21.539745 H    1113 MOH     0.0372 ****
6981 C1      9.750984  -27.668375  -22.292107 C    1113 MOH     0.1166 ****
6982 HC2     9.330673  -27.276865  -23.219124 H    1113 MOH     0.0372 ****
6983 HC3    10.148779  -28.666134  -22.478783 H    1113 MOH     0.0372 ****
6984 O1     10.757306  -26.768187  -21.942089 O    1113 MOH    -0.6497 ****
6985 HO1    11.584649  -27.233182  -22.085631 H    1113 MOH     0.4215 ****
6986 HC1    12.317884  -25.162547  -10.698384 H    1114 MOH     0.0372 ****
6987 C1     11.308098  -24.763280  -10.606460 C    1114 MOH     0.1166 ****
6988 HC2    10.695529  -25.504659  -10.093101 H    1114 MOH     0.0372 ****
6989 HC3    10.906840  -24.571403  -11.602066 H    1114 MOH     0.0372 ****
6990 O1     11.376225  -23.574461   -9.844199 O    1114 MOH    -0.6497 ****
6991 HO1    11.710511  -22.881255  -10.418370 H    1114 MOH     0.4215 ****
6992 HC1     8.061657  -17.926346  -12.274525 H    1115 MOH     0.0372 ****
6993 C1      8.924219  -17.463392  -12.753943 C    1115 MOH     0.1166 ****
6994 HC2     9.711147  -17.348674  -12.007946 H    1115 MOH     0.0372 ****
6995 HC3     8.607253  -16.471349  -13.076384 H    1115 MOH     0.0372 ****
6996 O1      9.307002  -18.250903  -13.912891 O    1115 MOH    -0.6497 ****
6997 HO1     8.613027  -18.204771  -14.574036 H    1115 MOH     0.4215 ****
6998 HC1    14.747951  -22.488929   -6.013801 H    1116 MOH     0.0372 ****
6999 C1     15.355901  -21.618135   -6.261996 C    1116 MOH     0.1166 ****
7000 HC2    16.405523  -21.887579   -6.376547 H    1116 MOH     0.0372 ****
7001 HC3    15.299320  -20.895944   -5.446702 H    1116 MOH     0.0372 ****
7002 O1     14.960993  -21.055977   -7.471856 O    1116 MOH    -0.6497 ****
7003 HO1    15.242740  -21.654469   -8.167649 H    1116 MOH     0.4215 ****
7004 HC1    20.328619  -16.239056  -16.701720 H    1117 MOH     0.0372 ****
7005 C1     19.313637  -16.622401  -16.805665 C    1117 MOH     0.1166 ****
7006 HC2    18.592526  -15.805088  -16.784452 H    1117 MOH     0.0372 ****
7007 HC3    19.078655  -17.317239  -15.999563 H    1117 MOH     0.0372 ****
7008 O1     19.186042  -17.334386  -17.987948 O    1117 MOH    -0.6497 ****
7009 HO1    19.906576  -17.967579  -18.019767 H    1117 MOH     0.4215 ****
7010 HC1    23.202668  -24.521189   -9.441855 H    1118 MOH     0.0372 ****
7011 C1     22.580285  -23.626717   -9.451047 C    1118 MOH     0.1166 ****
7012 HC2    23.024267  -22.839614   -8.841521 H    1118 MOH     0.0372 ****
7013 HC3    21.608604  -23.904734   -9.041633 H    1118 MOH     0.0372 ****
7014 O1     22.400729  -23.173969  -10.772630 O    1118 MOH    -0.6497 ****
7015 HO1    23.258094  -22.898402  -11.105677 H    1118 MOH     0.4215 ****
7016 HC1    19.186620  -18.874298  -20.922441 H    1119 MOH     0.0372 ****
7017 C1     19.779559  -19.212736  -21.771676 C    1119 MOH     0.1166 ****
7018 HC2    20.146753  -20.208454  -21.523482 H    1119 MOH     0.0372 ****
7019 HC3    20.626531  -18.542801  -21.923704 H    1119 MOH     0.0372 ****
7020 O1     18.975310  -19.263767  -22.941938 O    1119 MOH    -0.6497 ****
7021 HO1    19.382342  -19.914107  -23.519644 H    1119 MOH     0.4215 ****
7022 HC1    14.943095  -18.553415  -15.259930 H    1120 MOH     0.0372 ****
7023 C1     15.124383  -19.591591  -14.980623 C    1120 MOH     0.1166 ****
7024 HC2    14.465049  -20.228866  -15.569643 H    1120 MOH     0.0372 ****
7025 HC3    14.899794  -19.746317  -13.924912 H    1120 MOH     0.0372 ****
7026 O1     16.454598  -19.987183  -15.221746 O    1120 MOH    -0.6497 ****
7027 HO1    16.634154  -19.878997  -16.158662 H    1120 MOH     0.4215 ****
7028 HC1    18.831549  -24.341559  -11.601359 H    1121 MOH     0.0372 ****
7029 C1     19.285347  -23.462193  -11.144568 C    1121 MOH     0.1166 ****
7030 HC2    20.122505  -23.145392  -11.766822 H    1121 MOH     0.0372 ****
7031 HC3    19.589033  -23.711224  -10.127749 H    1121 MOH     0.0372 ****
7032 O1     18.335028  -22.464434  -11.179924 O    1121 MOH    -0.6497 ****
7033 HO1    18.007093  -22.408912  -12.080778 H    1121 MOH     0.4215 ****
7034 HC1    10.664352  -12.868966  -13.930569 H    1122 MOH     0.0372 ****
7035 C1      9.756758  -12.932653  -13.330943 C    1122 MOH     0.1166 ****
7036 HC2     9.145921  -13.779360  -13.643484 H    1122 MOH     0.0372 ****
7037 HC3     9.207698  -12.000622  -13.463172 H    1122 MOH     0.0372 ****
7038 O1     10.128571  -13.115956  -12.006532 O    1122 MOH    -0.6497 ****
7039 HO1    10.655692  -13.918572  -12.007946 H    1122 MOH     0.4215 ****
7040 HC1    26.194497  -21.022501   -6.224519 H    1123 MOH     0.0372 ****
7041 C1     25.941618  -20.157831   -5.610751 C    1123 MOH     0.1166 ****
7042 HC2    26.749331  -19.974527   -4.902937 H    1123 MOH     0.0372 ****
7043 HC3    25.023631  -20.390532   -5.071935 H    1123 MOH     0.0372 ****
7044 O1     25.749360  -19.049437   -6.467057 O    1123 MOH    -0.6497 ****
7045 HO1    25.064045  -19.320514   -7.082240 H    1123 MOH     0.4215 ****
7046 HC1    19.794569  -25.094777   -2.340382 H    1124 MOH     0.0372 ****
7047 C1     18.903141  -24.468116   -2.372201 C    1124 MOH     0.1166 ****
7048 HC2    18.014599  -25.098860   -2.412507 H    1124 MOH     0.0372 ****
7049 HC3    18.912378  -23.850028   -3.270227 H    1124 MOH     0.0372 ****
7050 O1     18.913533  -23.620593   -1.250730 O    1124 MOH    -0.6497 ****
7051 HO1    19.669284  -23.040472   -1.367403 H    1124 MOH     0.4215 ****
7052 HC1    21.451565  -23.832882   -3.753888 H    1125 MOH     0.0372 ****
7053 C1     21.676154  -22.766946   -3.703684 C    1125 MOH     0.1166 ****
7054 HC2    21.317042  -22.219077   -4.574839 H    1125 MOH     0.0372 ****
7055 HC3    22.762150  -22.720405   -3.775808 H    1125 MOH     0.0372 ****
7056 O1     21.315310  -22.168862   -2.437255 O    1125 MOH    -0.6497 ****
7057 HO1    21.243141  -21.220093   -2.563120 H    1125 MOH     0.4215 ****
7058 HC1    22.851062  -17.389499  -13.526811 H    1126 MOH     0.0372 ****
7059 C1     22.358582  -16.953082  -14.395845 C    1126 MOH     0.1166 ****
7060 HC2    21.416346  -16.465633  -14.145529 H    1126 MOH     0.0372 ****
7061 HC3    22.106280  -17.787541  -15.050626 H    1126 MOH     0.0372 ****
7062 O1     23.196317  -16.027991  -15.095881 O    1126 MOH    -0.6497 ****
7063 HO1    22.655340  -15.328254  -15.467819 H    1126 MOH     0.4215 ****
7064 HC1    25.506296  -18.026367   -9.777731 H    1127 MOH     0.0372 ****
7065 C1     25.166814  -18.772236  -10.496858 C    1127 MOH     0.1166 ****
7066 HC2    24.660478  -19.609554  -10.015319 H    1127 MOH     0.0372 ****
7067 HC3    26.053624  -19.169054  -10.991833 H    1127 MOH     0.0372 ****
7068 O1     24.325614  -18.151699  -11.451453 O    1127 MOH    -0.6497 ****
7069 HO1    24.855045  -17.466658  -11.867231 H    1127 MOH     0.4215 ****
7070 HC1    16.212689  -25.262568  -18.758694 H    1128 MOH     0.0372 ****
7071 C1     15.582222  -25.576102  -17.927136 C    1128 MOH     0.1166 ****
7072 HC2    14.605923  -25.888821  -18.297660 H    1128 MOH     0.0372 ****
7073 HC3    15.411904  -24.748991  -17.237000 H    1128 MOH     0.0372 ****
7074 O1     16.184398  -26.630199  -17.231343 O    1128 MOH    -0.6497 ****
7075 HO1    15.533725  -26.984559  -16.621817 H    1128 MOH     0.4215 ****
7076 HC1    18.874851  -20.530153  -15.614897 H    1129 MOH     0.0372 ****
7077 C1     19.531298  -20.254586  -14.789704 C    1129 MOH     0.1166 ****
7078 HC2    18.984547  -20.290512  -13.846423 H    1129 MOH     0.0372 ****
7079 HC3    19.877708  -19.231924  -14.940317 H    1129 MOH     0.0372 ****
7080 O1     20.650203  -21.126604  -14.724650 O    1129 MOH    -0.6497 ****
7081 HO1    21.255266  -20.800006  -14.054313 H    1129 MOH     0.4215 ****
7082 HC1    22.651299  -15.815294   -7.847329 H    1130 MOH     0.0372 ****
7083 C1     22.339530  -16.234157   -6.889907 C    1130 MOH     0.1166 ****
7084 HC2    21.812409  -15.487879   -6.297351 H    1130 MOH     0.0372 ****
7085 HC3    23.232113  -16.567695   -6.361698 H    1130 MOH     0.0372 ****
7086 O1     21.524888  -17.348266   -7.116888 O    1130 MOH    -0.6497 ****
7087 HO1    20.838996  -17.106991   -7.742678 H    1130 MOH     0.4215 ****
7088 HC1    15.331075  -10.421109  -15.566814 H    1131 MOH     0.0372 ****
7089 C1     14.423480  -10.041438  -16.036333 C    1131 MOH     0.1166 ****
7090 HC2    14.553961  -10.061443  -17.118914 H    1131 MOH     0.0372 ****
7091 HC3    14.280297   -9.010611  -15.714599 H    1131 MOH     0.0372 ****
7092 O1     13.283213  -10.834665  -15.662274 O    1131 MOH    -0.6497 ****
7093 HO1    12.510141  -10.329662  -15.924610 H    1131 MOH     0.4215 ****
7094 HC1    17.488633  -18.891037   -9.055068 H    1132 MOH     0.0372 ****
7095 C1     18.070602  -18.648537   -9.944608 C    1132 MOH     0.1166 ****
7096 HC2    18.034229  -19.470341  -10.659493 H    1132 MOH     0.0372 ****
7097 HC3    19.097708  -18.505242   -9.607318 H    1132 MOH     0.0372 ****
7098 O1     17.604680  -17.404196  -10.476352 O    1132 MOH    -0.6497 ****
7099 HO1    18.020372  -16.726912   -9.938244 H    1132 MOH     0.4215 ****
7100 HC1    14.982932  -23.457294  -11.383570 H    1133 MOH     0.0372 ****
7101 C1     15.145745  -23.681422  -10.329274 C    1133 MOH     0.1166 ****
7102 HC2    15.713280  -24.608146  -10.237350 H    1133 MOH     0.0372 ****
7103 HC3    14.161940  -23.798997   -9.875312 H    1133 MOH     0.0372 ****
7104 O1     15.838565  -22.604871   -9.737426 O    1133 MOH    -0.6497 ****
7105 HO1    16.676878  -22.514240  -10.195631 H    1133 MOH     0.4215 ****
7106 HC1    14.705227  -23.562214  -20.719501 H    1134 MOH     0.0372 ****
7107 C1     14.571859  -24.584875  -21.072347 C    1134 MOH     0.1166 ****
7108 HC2    13.573043  -24.662443  -21.500854 H    1134 MOH     0.0372 ****
7109 HC3    14.645183  -25.301759  -20.254932 H    1134 MOH     0.0372 ****
7110 O1     15.492155  -24.862076  -22.084217 O    1134 MOH    -0.6497 ****
7111 HO1    15.608203  -25.810029  -22.176141 H    1134 MOH     0.4215 ****
7112 HC1    17.840816  -16.281514  -21.409637 H    1135 MOH     0.0372 ****
7113 C1     16.993266  -16.946142  -21.239932 C    1135 MOH     0.1166 ****
7114 HC2    16.127818  -16.302334  -21.083661 H    1135 MOH     0.0372 ****
7115 HC3    17.225938  -17.547900  -20.361705 H    1135 MOH     0.0372 ****
7116 O1     16.859898  -17.647921  -22.455448 O    1135 MOH    -0.6497 ****
7117 HO1    17.705716  -18.053719  -22.660509 H    1135 MOH     0.4215 ****
7118 HC1    19.258211  -20.899210   -6.828388 H    1136 MOH     0.0372 ****
7119 C1     19.321720  -21.822259   -7.404680 C    1136 MOH     0.1166 ****
7120 HC2    20.353445  -22.026383   -7.690352 H    1136 MOH     0.0372 ****
7121 HC3    18.704532  -21.710399   -8.295635 H    1136 MOH     0.0372 ****
7122 O1     18.803836  -22.875540   -6.639591 O    1136 MOH    -0.6497 ****
7123 HO1    19.053829  -23.700201   -7.063855 H    1136 MOH     0.4215 ****
7124 HC1     7.207179  -21.591599  -15.310841 H    1137 MOH     0.0372 ****
7125 C1      7.040902  -20.521172  -15.192048 C    1137 MOH     0.1166 ****
7126 HC2     7.394241  -20.200289  -14.211998 H    1137 MOH     0.0372 ****
7127 HC3     5.973959  -20.308066  -15.264172 H    1137 MOH     0.0372 ****
7128 O1      7.727949  -19.806737  -16.201796 O    1137 MOH    -0.6497 ****
7129 HO1     7.637305  -20.336644  -16.996584 H    1137 MOH     0.4215 ****
7130 HC1    13.870379  -15.275590  -18.159775 H    1138 MOH     0.0372 ****
7131 C1     14.741600  -15.930828  -18.178867 C    1138 MOH     0.1166 ****
7132 HC2    14.741023  -16.502376  -19.106591 H    1138 MOH     0.0372 ****
7133 HC3    14.713887  -16.639955  -17.350845 H    1138 MOH     0.0372 ****
7134 O1     15.919972  -15.146175  -18.105327 O    1138 MOH    -0.6497 ****
7135 HO1    15.890527  -14.635456  -17.292862 H    1138 MOH     0.4215 ****
7136 HC1     9.685166  -22.040672  -15.634696 H    1139 MOH     0.0372 ****
7137 C1      9.952480  -23.045371  -15.305892 C    1139 MOH     0.1166 ****
7138 HC2    10.897025  -23.334819  -15.766218 H    1139 MOH     0.0372 ****
7139 HC3     9.189800  -23.758989  -15.615604 H    1139 MOH     0.0372 ****
7140 O1     10.119911  -23.037614  -13.876829 O    1139 MOH    -0.6497 ****
7141 HO1     9.291413  -22.849820  -13.429937 H    1139 MOH     0.4215 ****
7142 HC1    26.819768  -22.225200   -8.272300 H    1140 MOH     0.0372 ****
7143 C1     27.678287  -21.863492   -8.837986 C    1140 MOH     0.1166 ****
7144 HC2    27.330145  -21.344200   -9.730355 H    1140 MOH     0.0372 ****
7145 HC3    28.307599  -22.704076   -9.131435 H    1140 MOH     0.0372 ****
7146 O1     28.427688  -20.973919   -8.042491 O    1140 MOH    -0.6497 ****
7147 HO1    28.595120  -21.392374   -7.194670 H    1140 MOH     0.4215 ****
7148 HC1    12.566722  -15.963080  -13.557924 H    1141 MOH     0.0372 ****
7149 C1     12.196063  -16.359897  -12.613229 C    1141 MOH     0.1166 ****
7150 HC2    13.050541  -16.482780  -11.947842 H    1141 MOH     0.0372 ****
7151 HC3    11.724368  -17.335611  -12.729195 H    1141 MOH     0.0372 ****
7152 O1     11.341007  -15.424600  -12.051079 O    1141 MOH    -0.6497 ****
7153 HO1    11.525759  -15.422967  -11.109213 H    1141 MOH     0.4215 ****
7154 HC1    11.854849  -20.637931   -7.819752 H    1142 MOH     0.0372 ****
7155 C1     11.788453  -20.898393   -6.763335 C    1142 MOH     0.1166 ****
7156 HC2    11.896418  -21.976577   -6.639591 H    1142 MOH     0.0372 ****
7157 HC3    10.804648  -20.583634   -6.414731 H    1142 MOH     0.0372 ****
7158 O1     12.772258  -20.179468   -6.039964 O    1142 MOH    -0.6497 ****
7159 HO1    13.594982  -20.288470   -6.522918 H    1142 MOH     0.4215 ****
7160 HC1    19.401394  -18.076989   -2.971121 H    1143 MOH     0.0372 ****
7161 C1     19.839025  -18.980443   -3.396092 C    1143 MOH     0.1166 ****
7162 HC2    20.082667  -18.785300   -4.439782 H    1143 MOH     0.0372 ****
7163 HC3    19.133503  -19.806737   -3.302754 H    1143 MOH     0.0372 ****
7164 O1     20.975251  -19.278056   -2.648680 O    1143 MOH    -0.6497 ****
7165 HO1    21.602831  -18.552190   -2.696764 H    1143 MOH     0.4215 ****
7166 HC1    16.181511  -25.274815   -3.603982 H    1144 MOH     0.0372 ****
7167 C1     15.771015  -26.231341   -3.280834 C    1144 MOH     0.1166 ****
7168 HC2    16.549861  -26.993949   -3.259621 H    1144 MOH     0.0372 ****
7169 HC3    14.985819  -26.510174   -3.982991 H    1144 MOH     0.0372 ****
7170 O1     15.175190  -26.086821   -2.025012 O    1144 MOH    -0.6497 ****
7171 HO1    15.795841  -25.637748   -1.446599 H    1144 MOH     0.4215 ****
7172 HC1    12.564412  -14.549316  -16.633131 H    1145 MOH     0.0372 ****
7173 C1     13.130793  -14.244355  -15.752783 C    1145 MOH     0.1166 ****
7174 HC2    13.516463  -15.138010  -15.261344 H    1145 MOH     0.0372 ****
7175 HC3    12.476655  -13.720572  -15.056283 H    1145 MOH     0.0372 ****
7176 O1     14.225449  -13.429899  -16.157955 O    1145 MOH    -0.6497 ****
7177 HO1    13.874420  -12.554615  -16.334732 H    1145 MOH     0.4215 ****
7178 HC1     4.480931  -23.954132  -17.236293 H    1146 MOH     0.0372 ****
7179 C1      5.039806  -23.321755  -16.546864 C    1146 MOH     0.1166 ****
7180 HC2     5.084839  -22.321139  -16.977492 H    1146 MOH     0.0372 ****
7181 HC3     6.053056  -23.716123  -16.466254 H    1146 MOH     0.0372 ****
7182 O1      4.374699  -23.309508  -15.258516 O    1146 MOH    -0.6497 ****
7183 HO1     4.841775  -23.927596  -14.692830 H    1146 MOH     0.4215 ****
7184 HC1    21.382283  -20.290920   -6.773234 H    1147 MOH     0.0372 ****
7185 C1     22.307775  -19.991266   -6.279674 C    1147 MOH     0.1166 ****
7186 HC2    22.751758  -20.845321   -5.767728 H    1147 MOH     0.0372 ****
7187 HC3    22.061824  -19.239272   -5.530140 H    1147 MOH     0.0372 ****
7188 O1     23.189966  -19.491978   -7.305685 O    1147 MOH    -0.6497 ****
7189 HO1    22.999441  -18.553823   -7.380639 H    1147 MOH     0.4215 ****
7190 HC1     5.982042  -27.095194  -13.904406 H    1148 MOH     0.0372 ****
7191 C1      6.569784  -26.179493  -13.842888 C    1148 MOH     0.1166 ****
7192 HC2     7.035706  -25.968837  -14.805967 H    1148 MOH     0.0372 ****
7193 HC3     7.358445  -26.328096  -13.106083 H    1148 MOH     0.0372 ****
7194 O1      5.788052  -25.054769  -13.467414 O    1148 MOH    -0.6497 ****
7195 HO1     5.387948  -25.218885  -12.610401 H    1148 MOH     0.4215 ****
7196 HC1    19.799188  -16.421951  -11.425290 H    1149 MOH     0.0372 ****
7197 C1     20.744888  -16.079022  -11.005268 C    1149 MOH     0.1166 ****
7198 HC2    20.631150  -15.104534  -10.529385 H    1149 MOH     0.0372 ****
7199 HC3    21.474659  -15.965529  -11.807127 H    1149 MOH     0.0372 ****
7200 O1     21.186561  -17.001255  -10.032996 O    1149 MOH    -0.6497 ****
7201 HO1    22.017945  -17.389499  -10.315132 H    1149 MOH     0.4215 ****
7202 HC1    19.717205  -24.487712  -16.354531 H    1150 MOH     0.0372 ****
7203 C1     20.498937  -23.814511  -16.705963 C    1150 MOH     0.1166 ****
7204 HC2    21.058389  -24.249295  -17.533985 H    1150 MOH     0.0372 ****
7205 HC3    21.184252  -23.609570  -15.884305 H    1150 MOH     0.0372 ****
7206 O1     19.925051  -22.615077  -17.151440 O    1150 MOH    -0.6497 ****
7207 HO1    20.120195  -21.971678  -16.465547 H    1150 MOH     0.4215 ****
7208 HC1    24.617061   -1.746813  -16.083002 H    1151 MOH     0.0372 ****
7209 C1     23.580717   -1.608008  -15.776118 C    1151 MOH     0.1166 ****
7210 HC2    23.017223   -1.243851  -16.634545 H    1151 MOH     0.0372 ****
7211 HC3    23.510858   -0.858056  -14.987694 H    1151 MOH     0.0372 ****
7212 O1     23.055328   -2.850716  -15.358925 O    1151 MOH    -0.6497 ****
7213 HO1    22.292649   -2.698440  -14.796775 H    1151 MOH     0.4215 ****
7214 HC1    19.115490  -12.287784  -11.991682 H    1152 MOH     0.0372 ****
7215 C1     18.314705  -12.681743  -11.365893 C    1152 MOH     0.1166 ****
7216 HC2    17.748902  -13.412100  -11.945013 H    1152 MOH     0.0372 ****
7217 HC3    17.642092  -11.904847  -11.004561 H    1152 MOH     0.0372 ****
7218 O1     18.811804  -13.422714  -10.321496 O    1152 MOH    -0.6497 ****
7219 HO1    19.356245  -12.826671   -9.802480 H    1152 MOH     0.4215 ****
7220 HC1    25.666684   -3.198136  -11.413976 H    1153 MOH     0.0372 ****
7221 C1     26.270592   -2.646592  -10.693434 C    1153 MOH     0.1166 ****
7222 HC2    27.082347   -3.281826  -10.339881 H    1153 MOH     0.0372 ****
7223 HC3    25.622228   -2.360818   -9.864705 H    1153 MOH     0.0372 ****
7224 O1     26.775196   -1.522685  -11.348922 O    1153 MOH    -0.6497 ****
7225 HO1    27.588105   -1.260997  -10.909809 H    1153 MOH     0.4215 ****
7226 HC1    23.728519   -8.519652   -7.029207 H    1154 MOH     0.0372 ****
7227 C1     22.708341   -8.812366   -6.781012 C    1154 MOH     0.1166 ****
7228 HC2    22.547260   -8.754803   -5.705503 H    1154 MOH     0.0372 ****
7229 HC3    22.499917   -9.834620   -7.097796 H    1154 MOH     0.0372 ****
7230 O1     21.822108   -7.919935   -7.382053 O    1154 MOH    -0.6497 ****
7231 HO1    22.273596   -7.543530   -8.141486 H    1154 MOH     0.4215 ****
7232 HC1    27.525752   -4.571483  -21.925825 H    1155 MOH     0.0372 ****
7233 C1     27.571362   -5.026271  -22.915775 C    1155 MOH     0.1166 ****
7234 HC2    28.488772   -5.605168  -23.024669 H    1155 MOH     0.0372 ****
7235 HC3    27.560970   -4.248558  -23.678743 H    1155 MOH     0.0372 ****
7236 O1     26.468046   -5.862772  -23.132857 O    1155 MOH    -0.6497 ****
7237 HO1    26.727276   -6.750304  -22.875470 H    1155 MOH     0.4215 ****
7238 HC1    18.327407   -5.732949  -10.824956 H    1156 MOH     0.0372 ****
7239 C1     19.367792   -5.705597  -11.150932 C    1156 MOH     0.1166 ****
7240 HC2    19.952071   -6.345322  -10.488373 H    1156 MOH     0.0372 ****
7241 HC3    19.709006   -4.671912  -11.097192 H    1156 MOH     0.0372 ****
7242 O1     19.434765   -6.187738  -12.473929 O    1156 MOH    -0.6497 ****
7243 HO1    18.840094   -6.940548  -12.517770 H    1156 MOH     0.4215 ****
7244 HC1    21.207808  -10.415149  -14.984865 H    1157 MOH     0.0372 ****
7245 C1     22.122330  -10.108963  -15.492568 C    1157 MOH     0.1166 ****
7246 HC2    22.717579   -9.454541  -14.855465 H    1157 MOH     0.0372 ****
7247 HC3    21.846934   -9.562726  -16.394836 H    1157 MOH     0.0372 ****
7248 O1     22.824388  -11.248384  -15.890669 O    1157 MOH    -0.6497 ****
7249 HO1    23.759118  -11.049567  -15.800866 H    1157 MOH     0.4215 ****
7250 HC1    18.153625  -10.752770  -19.840568 H    1158 MOH     0.0372 ****
7251 C1     18.196349  -10.511087  -18.778493 C    1158 MOH     0.1166 ****
7252 HC2    19.233270  -10.573141  -18.447567 H    1158 MOH     0.0372 ****
7253 HC3    17.598791  -11.212866  -18.196544 H    1158 MOH     0.0372 ****
7254 O1     17.762759   -9.217348  -18.509085 O    1158 MOH    -0.6497 ****
7255 HO1    16.993151   -9.025880  -19.050022 H    1158 MOH     0.4215 ****
7256 HC1    15.550352   -6.815215  -12.125325 H    1159 MOH     0.0372 ****
7257 C1     15.115608   -7.700706  -11.662171 C    1159 MOH     0.1166 ****
7258 HC2    14.703379   -8.375540  -12.412411 H    1159 MOH     0.0372 ****
7259 HC3    14.293461   -7.414524  -11.005268 H    1159 MOH     0.0372 ****
7260 O1     16.020893   -8.403301  -10.866675 O    1159 MOH    -0.6497 ****
7261 HO1    15.494349   -9.121002  -10.506051 H    1159 MOH     0.4215 ****
7262 HC1    29.139446   -1.256915  -14.356247 H    1160 MOH     0.0372 ****
7263 C1     28.473761   -0.397961  -14.271394 C    1160 MOH     0.1166 ****
7264 HC2    27.431643   -0.718027  -14.278466 H    1160 MOH     0.0372 ****
7265 HC3    28.608861    0.226659  -15.153864 H    1160 MOH     0.0372 ****
7266 O1     28.699505    0.398940  -13.067899 O    1160 MOH    -0.6497 ****
7267 HO1    28.626759   -0.168117  -12.297859 H    1160 MOH     0.4215 ****
7268 HC1    29.213924  -11.910971   -5.406397 H    1161 MOH     0.0372 ****
7269 C1     29.513568  -12.958127   -5.421246 C    1161 MOH     0.1166 ****
7270 HC2    30.147499  -13.146738   -6.288159 H    1161 MOH     0.0372 ****
7271 HC3    28.645811  -13.612141   -5.500442 H    1161 MOH     0.0372 ****
7272 O1     30.218513  -13.269213   -4.227650 O    1161 MOH    -0.6497 ****
7273 HO1    30.652681  -14.117553   -4.346444 H    1161 MOH     0.4215 ****
7274 HC1    21.462996   -8.643351  -19.453780 H    1162 MOH     0.0372 ****
7275 C1     20.922597   -7.773782  -19.827132 C    1162 MOH     0.1166 ****
7276 HC2    20.479192   -8.103239  -20.766877 H    1162 MOH     0.0372 ****
7277 HC3    21.645439   -6.970758  -19.973504 H    1162 MOH     0.0372 ****
7278 O1     19.931286   -7.435345  -18.833647 O    1162 MOH    -0.6497 ****
7279 HO1    19.295624   -8.149371  -18.750916 H    1162 MOH     0.4215 ****
7280 HC1    26.080066    2.997032  -11.622573 H    1163 MOH     0.0372 ****
7281 C1     25.625692    3.295054  -12.567267 C    1163 MOH     0.1166 ****
7282 HC2    24.544892    3.160332  -12.519184 H    1163 MOH     0.0372 ****
7283 HC3    26.048312    2.670434  -13.354984 H    1163 MOH     0.0372 ****
7284 O1     25.907439    4.652479  -12.826775 O    1163 MOH    -0.6497 ****
7285 HO1    25.637816    4.846805  -13.727629 H    1163 MOH     0.4215 ****
7286 HC1    27.121029    5.910700   -8.499282 H    1164 MOH     0.0372 ****
7287 C1     26.779238    5.241173   -9.288413 C    1164 MOH     0.1166 ****
7288 HC2    26.280984    4.365072   -8.872634 H    1164 MOH     0.0372 ****
7289 HC3    27.651614    4.923148   -9.859048 H    1164 MOH     0.0372 ****
7290 O1     25.998083    5.971121  -10.210480 O    1164 MOH    -0.6497 ****
7291 HO1    26.025218    5.484081  -11.037088 H    1164 MOH     0.4215 ****
7292 HC1    27.343886  -11.001393  -20.199071 H    1165 MOH     0.0372 ****
7293 C1     27.182806  -12.014257  -19.830668 C    1165 MOH     0.1166 ****
7294 HC2    26.431673  -11.969350  -19.042951 H    1165 MOH     0.0372 ****
7295 HC3    28.107721  -12.414749  -19.415596 H    1165 MOH     0.0372 ****
7296 O1     26.731318  -12.860964  -20.887085 O    1165 MOH    -0.6497 ****
7297 HO1    27.136040  -13.719102  -20.737179 H    1165 MOH     0.4215 ****
7298 HC1    31.145160    2.042548  -20.411910 H    1166 MOH     0.0372 ****
7299 C1     30.564346    2.423852  -19.571867 C    1166 MOH     0.1166 ****
7300 HC2    30.861681    3.431000  -19.279832 H    1166 MOH     0.0372 ****
7301 HC3    30.772192    1.768613  -18.725460 H    1166 MOH     0.0372 ****
7302 O1     29.185056    2.380169  -19.856831 O    1166 MOH    -0.6497 ****
7303 HO1    28.779756    1.705335  -19.307409 H    1166 MOH     0.4215 ****
7304 HC1    19.722863   -8.314303   -9.385994 H    1167 MOH     0.0372 ****
7305 C1     19.331419   -9.083443  -10.050674 C    1167 MOH     0.1166 ****
7306 HC2    19.830827   -9.049558  -11.018703 H    1167 MOH     0.0372 ****
7307 HC3    18.259857   -8.920960  -10.175125 H    1167 MOH     0.0372 ****
7308 O1     19.472293  -10.350237   -9.465897 O    1167 MOH    -0.6497 ****
7309 HO1    19.026001  -10.350646   -8.616662 H    1167 MOH     0.4215 ****
7310 HC1    30.077640   -6.955245  -14.634847 H    1168 MOH     0.0372 ****
7311 C1     29.014161   -6.754386  -14.766369 C    1168 MOH     0.1166 ****
7312 HC2    28.432191   -7.675395  -14.739499 H    1168 MOH     0.0372 ****
7313 HC3    28.849038   -6.283676  -15.735813 H    1168 MOH     0.0372 ****
7314 O1     28.563827   -5.863997  -13.787026 O    1168 MOH    -0.6497 ****
7315 HO1    28.674101   -4.969525  -14.117245 H    1168 MOH     0.4215 ****
7316 HC1    29.558024  -15.283510  -12.227856 H    1169 MOH     0.0372 ****
7317 C1     29.372118  -14.697673  -13.128003 C    1169 MOH     0.1166 ****
7318 HC2    29.390016  -15.321477  -14.021786 H    1169 MOH     0.0372 ****
7319 HC3    30.119786  -13.912204  -13.236897 H    1169 MOH     0.0372 ****
7320 O1     28.129660  -14.109388  -12.998602 O    1169 MOH    -0.6497 ****
7321 HO1    27.831170  -13.998752  -13.904406 H    1169 MOH     0.4215 ****
7322 HC1    28.988180   -3.355719  -19.895015 H    1170 MOH     0.0372 ****
7323 C1     28.750889   -3.642310  -18.869710 C    1170 MOH     0.1166 ****
7324 HC2    29.512991   -4.304897  -18.460295 H    1170 MOH     0.0372 ****
7325 HC3    27.797684   -4.170991  -18.888802 H    1170 MOH     0.0372 ****
7326 O1     28.649275   -2.515953  -18.031788 O    1170 MOH    -0.6497 ****
7327 HO1    29.422925   -1.959510  -18.151289 H    1170 MOH     0.4215 ****
7328 HC1    26.679356  -18.338023  -13.543074 H    1171 MOH     0.0372 ****
7329 C1     26.272324  -17.337407  -13.688031 C    1171 MOH     0.1166 ****
7330 HC2    25.226743  -17.383131  -13.993501 H    1171 MOH     0.0372 ****
7331 HC3    26.828890  -16.879761  -14.504740 H    1171 MOH     0.0372 ****
7332 O1     26.427054  -16.513562  -12.531205 O    1171 MOH    -0.6497 ****
7333 HO1    26.709956  -15.633378  -12.791420 H    1171 MOH     0.4215 ****
7334 HC1    26.085263  -13.932616  -11.320638 H    1172 MOH     0.0372 ****
7335 C1     26.173597  -12.946696  -10.864554 C    1172 MOH     0.1166 ****
7336 HC2    25.572576  -12.914853   -9.956629 H    1172 MOH     0.0372 ****
7337 HC3    25.821414  -12.211441  -11.587924 H    1172 MOH     0.0372 ****
7338 O1     27.513627  -12.742981  -10.556962 O    1172 MOH    -0.6497 ****
7339 HO1    27.998601  -13.209608  -11.240735 H    1172 MOH     0.4215 ****
7340 HC1    30.381326    0.167463   -6.522211 H    1173 MOH     0.0372 ****
7341 C1     30.338602    1.041523   -7.172042 C    1173 MOH     0.1166 ****
7342 HC2    31.139387    1.741669   -6.933747 H    1173 MOH     0.0372 ****
7343 HC3    29.399253    1.557549   -6.976881 H    1173 MOH     0.0372 ****
7344 O1     30.339179    0.687163   -8.563629 O    1173 MOH    -0.6497 ****
7345 HO1    30.448299    1.479573   -9.094666 H    1173 MOH     0.4215 ****
7346 HC1    28.048831  -18.769950  -10.506758 H    1174 MOH     0.0372 ****
7347 C1     29.125012  -18.761785  -10.676463 C    1174 MOH     0.1166 ****
7348 HC2    29.545323  -17.901606  -10.156740 H    1174 MOH     0.0372 ****
7349 HC3    29.328816  -18.701364  -11.745609 H    1174 MOH     0.0372 ****
7350 O1     29.718528  -19.906513  -10.175832 O    1174 MOH    -0.6497 ****
7351 HO1    29.256648  -20.167792   -9.376801 H    1174 MOH     0.4215 ****
7352 HC1    24.695003   -4.101997  -17.908045 H    1175 MOH     0.0372 ****
7353 C1     24.112457   -4.974832  -17.612474 C    1175 MOH     0.1166 ****
7354 HC2    24.448475   -5.889717  -18.099671 H    1175 MOH     0.0372 ****
7355 HC3    23.092279   -4.794795  -17.949764 H    1175 MOH     0.0372 ****
7356 O1     24.105529   -5.121802  -16.209574 O    1175 MOH    -0.6497 ****
7357 HO1    23.919044   -4.259989  -15.828444 H    1175 MOH     0.4215 ****
7358 HC1    23.864196   -7.116503  -13.637120 H    1176 MOH     0.0372 ****
7359 C1     24.895921   -7.400235  -13.842888 C    1176 MOH     0.1166 ****
7360 HC2    25.166698   -8.226121  -13.185986 H    1176 MOH     0.0372 ****
7361 HC3    25.544285   -6.549446  -13.632170 H    1176 MOH     0.0372 ****
7362 O1     25.033908   -7.719485  -15.204775 O    1176 MOH    -0.6497 ****
7363 HO1    24.737150   -6.926667  -15.657324 H    1176 MOH     0.4215 ****
7364 HC1    29.358261   -7.844001  -19.323672 H    1177 MOH     0.0372 ****
7365 C1     29.372695   -7.136507  -20.153109 C    1177 MOH     0.1166 ****
7366 HC2    28.381962   -6.705397  -20.294530 H    1177 MOH     0.0372 ****
7367 HC3    29.711600   -7.629671  -21.063862 H    1177 MOH     0.0372 ****
7368 O1     30.249690   -6.084859  -19.846224 O    1177 MOH    -0.6497 ****
7369 HO1    30.445989   -6.077919  -18.906479 H    1177 MOH     0.4215 ****
7370 HC1    25.214618  -15.591329   -5.445288 H    1178 MOH     0.0372 ****
7371 C1     26.207083  -15.570508   -5.895715 C    1178 MOH     0.1166 ****
7372 HC2    26.730163  -14.659298   -5.605801 H    1178 MOH     0.0372 ****
7373 HC3    26.147039  -15.626030   -6.981831 H    1178 MOH     0.0372 ****
7374 O1     26.942050  -16.635220   -5.447409 O    1178 MOH    -0.6497 ****
7375 HO1    26.495181  -17.431304   -5.742979 H    1178 MOH     0.4215 ****
7376 HC1    23.154633   -3.361843  -12.439988 H    1179 MOH     0.0372 ****
7377 C1     22.915032   -3.994628  -11.585803 C    1179 MOH     0.1166 ****
7378 HC2    21.869451   -3.870112  -11.305082 H    1179 MOH     0.0372 ****
7379 HC3    23.547231   -3.687217  -10.752124 H    1179 MOH     0.0372 ****
7380 O1     23.216986   -5.344705  -11.901880 O    1179 MOH    -0.6497 ****
7381 HO1    22.754529   -5.617823  -12.697375 H    1179 MOH     0.4215 ****
7382 HC1    20.561175  -11.300231  -21.539745 H    1180 MOH     0.0372 ****
7383 C1     21.349258  -11.265938  -22.292107 C    1180 MOH     0.1166 ****
7384 HC2    20.928947  -10.874428  -23.219124 H    1180 MOH     0.0372 ****
7385 HC3    21.747053  -12.263697  -22.478783 H    1180 MOH     0.0372 ****
7386 O1     22.355580  -10.365751  -21.942089 O    1180 MOH    -0.6497 ****
7387 HO1    23.182923  -10.830746  -22.085631 H    1180 MOH     0.4215 ****
7388 HC1    23.916158   -8.760110  -10.698384 H    1181 MOH     0.0372 ****
7389 C1     22.906372   -8.360843  -10.606460 C    1181 MOH     0.1166 ****
7390 HC2    22.293803   -9.102222  -10.093101 H    1181 MOH     0.0372 ****
7391 HC3    22.505114   -8.168967  -11.602066 H    1181 MOH     0.0372 ****
7392 O1     22.974499   -7.172024   -9.844199 O    1181 MOH    -0.6497 ****
7393 HO1    23.308785   -6.478819  -10.418370 H    1181 MOH     0.4215 ****
7394 HC1    19.659931   -1.523909  -12.274525 H    1182 MOH     0.0372 ****
7395 C1     20.522493   -1.060956  -12.753943 C    1182 MOH     0.1166 ****
7396 HC2    21.309421   -0.946238  -12.007946 H    1182 MOH     0.0372 ****
7397 HC3    20.205527   -0.068912  -13.076384 H    1182 MOH     0.0372 ****
7398 O1     20.905276   -1.848467  -13.912891 O    1182 MOH    -0.6497 ****
7399 HO1    20.211301   -1.802335  -14.574036 H    1182 MOH     0.4215 ****
7400 HC1    26.346225   -6.086492   -6.013801 H    1183 MOH     0.0372 ****
7401 C1     26.954175   -5.215699   -6.261996 C    1183 MOH     0.1166 ****
7402 HC2    28.003798   -5.485142   -6.376547 H    1183 MOH     0.0372 ****
7403 HC3    26.897594   -4.493507   -5.446702 H    1183 MOH     0.0372 ****
7404 O1     26.559267   -4.653541   -7.471856 O    1183 MOH    -0.6497 ****
7405 HO1    26.841014   -5.252033   -8.167649 H    1183 MOH     0.4215 ****
7406 HC1    25.405721  -13.830554  -15.812180 H    1184 MOH     0.0372 ****
7407 C1     26.262509  -14.088567  -16.435848 C    1184 MOH     0.1166 ****
7408 HC2    26.448416  -13.295341  -17.159218 H    1184 MOH     0.0372 ****
7409 HC3    26.016558  -14.992429  -16.993048 H    1184 MOH     0.0372 ****
7410 O1     27.425870  -14.279219  -15.634696 O    1184 MOH    -0.6497 ****
7411 HO1    28.122154  -14.627046  -16.196139 H    1184 MOH     0.4215 ****
7412 HC1    26.541369   -2.150979  -15.259930 H    1185 MOH     0.0372 ****
7413 C1     26.722657   -3.189154  -14.980623 C    1185 MOH     0.1166 ****
7414 HC2    26.063323   -3.826430  -15.569643 H    1185 MOH     0.0372 ****
7415 HC3    26.498068   -3.343880  -13.924912 H    1185 MOH     0.0372 ****
7416 O1     28.052872   -3.584747  -15.221746 O    1185 MOH    -0.6497 ****
7417 HO1    28.232428   -3.476561  -16.158662 H    1185 MOH     0.4215 ****
7418 HC1    22.262627    3.533471  -13.930569 H    1186 MOH     0.0372 ****
7419 C1     21.355032    3.469784  -13.330943 C    1186 MOH     0.1166 ****
7420 HC2    20.744195    2.623077  -13.643484 H    1186 MOH     0.0372 ****
7421 HC3    20.805972    4.401815  -13.463172 H    1186 MOH     0.0372 ****
7422 O1     21.726845    3.286480  -12.006532 O    1186 MOH    -0.6497 ****
7423 HO1    22.253966    2.483864  -12.007946 H    1186 MOH     0.4215 ****
7424 HC1    31.392844   -8.692341   -2.340382 H    1187 MOH     0.0372 ****
7425 C1     30.501415   -8.065680   -2.372201 C    1187 MOH     0.1166 ****
7426 HC2    29.612873   -8.696423   -2.412507 H    1187 MOH     0.0372 ****
7427 HC3    30.510652   -7.447592   -3.270227 H    1187 MOH     0.0372 ****
7428 O1     30.511807   -7.218156   -1.250730 O    1187 MOH    -0.6497 ****
7429 HO1    31.267559   -6.638036   -1.367403 H    1187 MOH     0.4215 ****
7430 HC1    27.291925   -9.524351   -7.304271 H    1188 MOH     0.0372 ****
7431 C1     27.637180  -10.367384   -7.901777 C    1188 MOH     0.1166 ****
7432 HC2    28.377343  -10.899331   -7.302857 H    1188 MOH     0.0372 ****
7433 HC3    28.078853   -9.981589   -8.820308 H    1188 MOH     0.0372 ****
7434 O1     26.584671  -11.285126   -8.235531 O    1188 MOH    -0.6497 ****
7435 HO1    26.863531  -11.798294   -8.997085 H    1188 MOH     0.4215 ****
7436 HC1    27.810963   -8.860131  -18.758694 H    1189 MOH     0.0372 ****
7437 C1     27.180496   -9.173666  -17.927136 C    1189 MOH     0.1166 ****
7438 HC2    26.204197   -9.486384  -18.297660 H    1189 MOH     0.0372 ****
7439 HC3    27.010178   -8.346555  -17.237000 H    1189 MOH     0.0372 ****
7440 O1     27.782672  -10.227763  -17.231343 O    1189 MOH    -0.6497 ****
7441 HO1    27.131999  -10.582122  -16.621817 H    1189 MOH     0.4215 ****
7442 HC1    26.929349    5.981327  -15.566814 H    1190 MOH     0.0372 ****
7443 C1     26.021754    6.360998  -16.036333 C    1190 MOH     0.1166 ****
7444 HC2    26.152235    6.340994  -17.118914 H    1190 MOH     0.0372 ****
7445 HC3    25.878571    7.391825  -15.714599 H    1190 MOH     0.0372 ****
7446 O1     24.881487    5.567772  -15.662274 O    1190 MOH    -0.6497 ****
7447 HO1    24.108415    6.072775  -15.924610 H    1190 MOH     0.4215 ****
7448 HC1    19.811197  -14.195528  -15.561864 H    1191 MOH     0.0372 ****
7449 C1     20.454943  -13.411283  -15.958551 C    1191 MOH     0.1166 ****
7450 HC2    20.489006  -12.609892  -15.221039 H    1191 MOH     0.0372 ****
7451 HC3    20.055994  -12.971191  -16.873547 H    1191 MOH     0.0372 ****
7452 O1     21.766683  -13.875870  -16.189068 O    1191 MOH    -0.6497 ****
7453 HO1    22.208933  -13.088767  -16.514337 H    1191 MOH     0.4215 ****
7454 HC1    29.086907   -2.488600   -9.055068 H    1192 MOH     0.0372 ****
7455 C1     29.668876   -2.246101   -9.944608 C    1192 MOH     0.1166 ****
7456 HC2    29.632503   -3.067904  -10.659493 H    1192 MOH     0.0372 ****
7457 HC3    30.695982   -2.102805   -9.607318 H    1192 MOH     0.0372 ****
7458 O1     29.202954   -1.001760  -10.476352 O    1192 MOH    -0.6497 ****
7459 HO1    29.618646   -0.324476   -9.938244 H    1192 MOH     0.4215 ****
7460 HC1    26.581207   -7.054857  -11.383570 H    1193 MOH     0.0372 ****
7461 C1     26.744019   -7.278985  -10.329274 C    1193 MOH     0.1166 ****
7462 HC2    27.311555   -8.205709  -10.237350 H    1193 MOH     0.0372 ****
7463 HC3    25.760214   -7.396561   -9.875312 H    1193 MOH     0.0372 ****
7464 O1     27.436840   -6.202435   -9.737426 O    1193 MOH    -0.6497 ****
7465 HO1    28.275152   -6.111804  -10.195631 H    1193 MOH     0.4215 ****
7466 HC1    24.516602  -13.121018   -6.624035 H    1194 MOH     0.0372 ****
7467 C1     24.123426  -12.686234   -5.705503 C    1194 MOH     0.1166 ****
7468 HC2    23.939252  -11.621522   -5.846924 H    1194 MOH     0.0372 ****
7469 HC3    24.822598  -12.830346   -4.881723 H    1194 MOH     0.0372 ****
7470 O1     22.958911  -13.347188   -5.376698 O    1194 MOH    -0.6497 ****
7471 HO1    22.534558  -12.897707   -4.642014 H    1194 MOH     0.4215 ****
7472 HC1    26.303501   -7.159777  -20.719501 H    1195 MOH     0.0372 ****
7473 C1     26.170133   -8.182439  -21.072347 C    1195 MOH     0.1166 ****
7474 HC2    25.171317   -8.260006  -21.500854 H    1195 MOH     0.0372 ****
7475 HC3    26.243457   -8.899323  -20.254932 H    1195 MOH     0.0372 ****
7476 O1     27.090430   -8.459640  -22.084217 O    1195 MOH    -0.6497 ****
7477 HO1    27.206477   -9.407592  -22.176141 H    1195 MOH     0.4215 ****
7478 HC1    29.439090    0.120923  -21.409637 H    1196 MOH     0.0372 ****
7479 C1     28.591540   -0.543705  -21.239932 C    1196 MOH     0.1166 ****
7480 HC2    27.726092    0.100102  -21.083661 H    1196 MOH     0.0372 ****
7481 HC3    28.824212   -1.145463  -20.361705 H    1196 MOH     0.0372 ****
7482 O1     28.458172   -1.245484  -22.455448 O    1196 MOH    -0.6497 ****
7483 HO1    29.303990   -1.651283  -22.660509 H    1196 MOH     0.4215 ****
7484 HC1    18.805453   -5.189162  -15.310841 H    1197 MOH     0.0372 ****
7485 C1     18.639176   -4.118735  -15.192048 C    1197 MOH     0.1166 ****
7486 HC2    18.992515   -3.797852  -14.211998 H    1197 MOH     0.0372 ****
7487 HC3    17.572233   -3.905630  -15.264172 H    1197 MOH     0.0372 ****
7488 O1     19.326223   -3.404301  -16.201796 O    1197 MOH    -0.6497 ****
7489 HO1    19.235579   -3.934207  -16.996584 H    1197 MOH     0.4215 ****
7490 HC1    25.468653    1.126847  -18.159775 H    1198 MOH     0.0372 ****
7491 C1     26.339874    0.471608  -18.178867 C    1198 MOH     0.1166 ****
7492 HC2    26.339297   -0.099939  -19.106591 H    1198 MOH     0.0372 ****
7493 HC3    26.312161   -0.237519  -17.350845 H    1198 MOH     0.0372 ****
7494 O1     27.518246    1.256262  -18.105327 O    1198 MOH    -0.6497 ****
7495 HO1    27.488801    1.766980  -17.292862 H    1198 MOH     0.4215 ****
7496 HC1    21.283440   -5.638236  -15.634696 H    1199 MOH     0.0372 ****
7497 C1     21.550754   -6.642935  -15.305892 C    1199 MOH     0.1166 ****
7498 HC2    22.495299   -6.932383  -15.766218 H    1199 MOH     0.0372 ****
7499 HC3    20.788074   -7.356553  -15.615604 H    1199 MOH     0.0372 ****
7500 O1     21.718185   -6.635178  -13.876829 O    1199 MOH    -0.6497 ****
7501 HO1    20.889688   -6.447384  -13.429937 H    1199 MOH     0.4215 ****
7502 HC1    24.164996    0.439357  -13.557924 H    1200 MOH     0.0372 ****
7503 C1     23.794337    0.042539  -12.613229 C    1200 MOH     0.1166 ****
7504 HC2    24.648815   -0.080343  -11.947842 H    1200 MOH     0.0372 ****
7505 HC3    23.322642   -0.933174  -12.729195 H    1200 MOH     0.0372 ****
7506 O1     22.939281    0.977836  -12.051079 O    1200 MOH    -0.6497 ****
7507 HO1    23.124033    0.979469  -11.109213 H    1200 MOH     0.4215 ****
7508 HC1    24.048948  -12.615199   -1.406294 H    1201 MOH     0.0372 ****
7509 C1     24.943264  -13.057740   -0.966473 C    1201 MOH     0.1166 ****
7510 HC2    25.009082  -12.784622    0.086409 H    1201 MOH     0.0372 ****
7511 HC3    25.833538  -12.687867   -1.475590 H    1201 MOH     0.0372 ****
7512 O1     24.891880  -14.470279   -1.082439 O    1201 MOH    -0.6497 ****
7513 HO1    25.797165  -14.778506   -0.994050 H    1201 MOH     0.4215 ****
7514 HC1    23.453123   -4.235494   -7.819752 H    1202 MOH     0.0372 ****
7515 C1     23.386727   -4.495957   -6.763335 C    1202 MOH     0.1166 ****
7516 HC2    23.494692   -5.574141   -6.639591 H    1202 MOH     0.0372 ****
7517 HC3    22.402923   -4.181197   -6.414731 H    1202 MOH     0.0372 ****
7518 O1     24.370532   -3.777032   -6.039964 O    1202 MOH    -0.6497 ****
7519 HO1    25.193256   -3.886034   -6.522918 H    1202 MOH     0.4215 ****
7520 HC1    27.779786   -8.872378   -3.603982 H    1203 MOH     0.0372 ****
7521 C1     27.369290   -9.828904   -3.280834 C    1203 MOH     0.1166 ****
7522 HC2    28.148135  -10.591512   -3.259621 H    1203 MOH     0.0372 ****
7523 HC3    26.584093  -10.107738   -3.982991 H    1203 MOH     0.0372 ****
7524 O1     26.773464   -9.684384   -2.025012 O    1203 MOH    -0.6497 ****
7525 HO1    27.394116   -9.235311   -1.446599 H    1203 MOH     0.4215 ****
7526 HC1    24.162686    1.853121  -16.633131 H    1204 MOH     0.0372 ****
7527 C1     24.729067    2.158082  -15.752783 C    1204 MOH     0.1166 ****
7528 HC2    25.114737    1.264427  -15.261344 H    1204 MOH     0.0372 ****
7529 HC3    24.074929    2.681865  -15.056283 H    1204 MOH     0.0372 ****
7530 O1     25.823723    2.972537  -16.157955 O    1204 MOH    -0.6497 ****
7531 HO1    25.472694    3.847822  -16.334732 H    1204 MOH     0.4215 ****
7532 HC1    16.079205   -7.551695  -17.236293 H    1205 MOH     0.0372 ****
7533 C1     16.638080   -6.919319  -16.546864 C    1205 MOH     0.1166 ****
7534 HC2    16.683114   -5.918702  -16.977492 H    1205 MOH     0.0372 ****
7535 HC3    17.651330   -7.313687  -16.466254 H    1205 MOH     0.0372 ****
7536 O1     15.972973   -6.907071  -15.258516 O    1205 MOH    -0.6497 ****
7537 HO1    16.440049   -7.525159  -14.692830 H    1205 MOH     0.4215 ****
7538 HC1    24.554130  -13.764826  -19.337107 H    1206 MOH     0.0372 ****
7539 C1     23.671939  -13.181439  -19.076185 C    1206 MOH     0.1166 ****
7540 HC2    23.976202  -12.182864  -18.765058 H    1206 MOH     0.0372 ****
7541 HC3    23.136735  -13.671337  -18.263012 H    1206 MOH     0.0372 ****
7542 O1     22.850946  -13.126326  -20.243618 O    1206 MOH    -0.6497 ****
7543 HO1    22.760303  -14.015082  -20.596465 H    1206 MOH     0.4215 ****
7544 HC1    26.284448  -11.901989  -14.270687 H    1207 MOH     0.0372 ****
7545 C1     25.972679  -10.858506  -14.306043 C    1207 MOH     0.1166 ****
7546 HC2    26.778660  -10.201227  -13.977945 H    1207 MOH     0.0372 ****
7547 HC3    25.129748  -10.735215  -13.627220 H    1207 MOH     0.0372 ****
7548 O1     25.519459  -10.512312  -15.600048 O    1207 MOH    -0.6497 ****
7549 HO1    25.308149   -9.576607  -15.570350 H    1207 MOH     0.4215 ****
7550 HC1    22.009747  -12.731141  -13.453979 H    1208 MOH     0.0372 ****
7551 C1     22.781087  -13.024264  -12.741215 C    1208 MOH     0.1166 ****
7552 HC2    23.678867  -13.280644  -13.304072 H    1208 MOH     0.0372 ****
7553 HC3    22.450843  -13.912612  -12.202400 H    1208 MOH     0.0372 ****
7554 O1     23.041472  -11.946896  -11.832583 O    1208 MOH    -0.6497 ****
7555 HO1    22.375210  -11.971800  -11.141740 H    1208 MOH     0.4215 ****
7556 HC1    21.880421  -12.120402   -7.570851 H    1209 MOH     0.0372 ****
7557 C1     22.363663  -12.271046   -8.536051 C    1209 MOH     0.1166 ****
7558 HC2    22.819192  -13.260639   -8.555850 H    1209 MOH     0.0372 ****
7559 HC3    23.124033  -11.501906   -8.674644 H    1209 MOH     0.0372 ****
7560 O1     21.332515  -12.221647   -9.522465 O    1209 MOH    -0.6497 ****
7561 HO1    20.819828  -11.420664   -9.392358 H    1209 MOH     0.4215 ****
7562 HC1    17.580316  -10.692758  -13.904406 H    1210 MOH     0.0372 ****
7563 C1     18.168058   -9.777057  -13.842888 C    1210 MOH     0.1166 ****
7564 HC2    18.633980   -9.566401  -14.805967 H    1210 MOH     0.0372 ****
7565 HC3    18.956719   -9.925659  -13.106083 H    1210 MOH     0.0372 ****
7566 O1     17.386326   -8.652333  -13.467414 O    1210 MOH    -0.6497 ****
7567 HO1    16.986222   -8.816449  -12.610401 H    1210 MOH     0.4215 ****
7568 HC1    30.713764    4.114653  -11.991682 H    1211 MOH     0.0372 ****
7569 C1     29.912979    3.720693  -11.365893 C    1211 MOH     0.1166 ****
7570 HC2    29.347176    2.990337  -11.945013 H    1211 MOH     0.0372 ****
7571 HC3    29.240366    4.497590  -11.004561 H    1211 MOH     0.0372 ****
7572 O1     30.410078    2.979723  -10.321496 O    1211 MOH    -0.6497 ****
7573 HO1    30.954519    3.575765   -9.802480 H    1211 MOH     0.4215 ****
7574 HC1    29.751899    5.649666  -19.840568 H    1212 MOH     0.0372 ****
7575 C1     29.794623    5.891349  -18.778493 C    1212 MOH     0.1166 ****
7576 HC2    30.831544    5.829296  -18.447567 H    1212 MOH     0.0372 ****
7577 HC3    29.197065    5.189570  -18.196544 H    1212 MOH     0.0372 ****
7578 O1     29.361033    7.185088  -18.509085 O    1212 MOH    -0.6497 ****
7579 HO1    28.591425    7.376557  -19.050022 H    1212 MOH     0.4215 ****
7580 HC1    27.148626    9.587221  -12.125325 H    1213 MOH     0.0372 ****
7581 C1     26.713882    8.701731  -11.662171 C    1213 MOH     0.1166 ****
7582 HC2    26.301654    8.026896  -12.412411 H    1213 MOH     0.0372 ****
7583 HC3    25.891735    8.987913  -11.005268 H    1213 MOH     0.0372 ****
7584 O1     27.619167    7.999135  -10.866675 O    1213 MOH    -0.6497 ****
7585 HO1    27.092623    7.281435  -10.506051 H    1213 MOH     0.4215 ****
7586 HC1    31.321137    8.088133   -9.385994 H    1214 MOH     0.0372 ****
7587 C1     30.929693    7.318994  -10.050674 C    1214 MOH     0.1166 ****
7588 HC2    31.429101    7.352878  -11.018703 H    1214 MOH     0.0372 ****
7589 HC3    29.858131    7.481476  -10.175125 H    1214 MOH     0.0372 ****
7590 O1     31.070567    6.052199   -9.465897 O    1214 MOH    -0.6497 ****
7591 HO1    30.624275    6.051791   -8.616662 H    1214 MOH     0.4215 ****
7592 HC1    30.403727   11.213274  -15.310841 H    1215 MOH     0.0372 ****
7593 C1     30.237450   12.283701  -15.192048 C    1215 MOH     0.1166 ****
7594 HC2    30.590789   12.604584  -14.211998 H    1215 MOH     0.0372 ****
7595 HC3    29.170507   12.496807  -15.264172 H    1215 MOH     0.0372 ****
7596 O1     30.924497   12.998136  -16.201796 O    1215 MOH    -0.6497 ****
7597 HO1    30.833853   12.468229  -16.996584 H    1215 MOH     0.4215 ****
7598 HC1    27.677479    8.850741  -17.236293 H    1216 MOH     0.0372 ****
7599 C1     28.236354    9.483118  -16.546864 C    1216 MOH     0.1166 ****
7600 HC2    28.281388   10.483734  -16.977492 H    1216 MOH     0.0372 ****
7601 HC3    29.249604    9.088750  -16.466254 H    1216 MOH     0.0372 ****
7602 O1     27.571247    9.495365  -15.258516 O    1216 MOH    -0.6497 ****
7603 HO1    28.038323    8.877277  -14.692830 H    1216 MOH     0.4215 ****
7604 HC1    29.178590    5.709679  -13.904406 H    1217 MOH     0.0372 ****
7605 C1     29.766332    6.625380  -13.842888 C    1217 MOH     0.1166 ****
7606 HC2    30.232254    6.836036  -14.805967 H    1217 MOH     0.0372 ****
7607 HC3    30.554993    6.476777  -13.106083 H    1217 MOH     0.0372 ****
7608 O1     28.984600    7.750104  -13.467414 O    1217 MOH    -0.6497 ****
7609 HO1    28.584496    7.585988  -12.610401 H    1217 MOH     0.4215 ****
7610 HC1   -28.036591   -7.910954   10.528678 H    1218 MOH     0.0372 ****
7611 C1    -28.231158   -7.169575   11.303667 C    1218 MOH     0.1166 ****
7612 HC2   -29.295215   -7.127525   11.536305 H    1218 MOH     0.0372 ****
7613 HC3   -27.929781   -6.181206   10.956478 H    1218 MOH     0.0372 ****
7614 O1    -27.561432   -7.499848   12.514941 O    1218 MOH    -0.6497 ****
7615 HO1   -27.779093   -8.394320   12.787177 H    1218 MOH     0.4215 ****
7616 HC1   -28.357598   -5.881143   14.310285 H    1219 MOH     0.0372 ****
7617 C1    -28.275037   -4.941356   14.856172 C    1219 MOH     0.1166 ****
7618 HC2   -29.101802   -4.285709   14.583229 H    1219 MOH     0.0372 ****
7619 HC3   -27.317790   -4.479218   14.611513 H    1219 MOH     0.0372 ****
7620 O1    -28.316029   -5.299389   16.197553 O    1219 MOH    -0.6497 ****
7621 HO1   -28.092017   -4.556377   16.761825 H    1219 MOH     0.4215 ****
7622 HC1   -28.799271  -12.386988   12.543933 H    1220 MOH     0.0372 ****
7623 C1    -29.705133  -12.062431   12.032694 C    1220 MOH     0.1166 ****
7624 HC2   -30.590789  -12.455165   12.531912 H    1220 MOH     0.0372 ****
7625 HC3   -29.697628  -12.410666   10.999611 H    1220 MOH     0.0372 ****
7626 O1    -29.798087  -10.670304   12.046837 O    1220 MOH    -0.6497 ****
7627 HO1   -29.527887  -10.384938   12.922942 H    1220 MOH     0.4215 ****
7628 HC1   -29.199375  -13.492932   16.981028 H    1221 MOH     0.0372 ****
7629 C1    -28.815437  -12.896073   16.153713 C    1221 MOH     0.1166 ****
7630 HC2   -28.127812  -13.513345   15.575299 H    1221 MOH     0.0372 ****
7631 HC3   -28.314297  -12.034261   16.595655 H    1221 MOH     0.0372 ****
7632 O1    -29.880648  -12.456390   15.366703 O    1221 MOH    -0.6497 ****
7633 HO1   -30.410078  -13.212466   15.105073 H    1221 MOH     0.4215 ****
7634 HC1   -29.307339   -8.036286   15.716721 H    1222 MOH     0.0372 ****
7635 C1    -28.667058   -8.911570   15.825615 C    1222 MOH     0.1166 ****
7636 HC2   -28.817169   -9.312470   16.828293 H    1222 MOH     0.0372 ****
7637 HC3   -27.628404   -8.598852   15.719549 H    1222 MOH     0.0372 ****
7638 O1    -29.046377   -9.853399   14.822231 O    1222 MOH    -0.6497 ****
7639 HO1   -29.117391  -10.726642   15.214675 H    1222 MOH     0.4215 ****
7640 HC1   -26.766536    5.353687   20.924562 H    1223 MOH     0.0372 ****
7641 C1    -26.705337    6.133441   21.682581 C    1223 MOH     0.1166 ****
7642 HC2   -26.345070    5.687634   22.610305 H    1223 MOH     0.0372 ****
7643 HC3   -27.698379    6.558836   21.828245 H    1223 MOH     0.0372 ****
7644 O1    -25.834115    7.156103   21.254781 O    1223 MOH    -0.6497 ****
7645 HO1   -24.947305    6.796028   21.188313 H    1223 MOH     0.4215 ****
7646 HC1   -20.508059   10.102839   15.143964 H    1224 MOH     0.0372 ****
7647 C1    -20.074469   10.295940   16.124721 C    1224 MOH     0.1166 ****
7648 HC2   -19.788681   11.346771   16.175633 H    1224 MOH     0.0372 ****
7649 HC3   -19.186504    9.676628   16.251293 H    1224 MOH     0.0372 ****
7650 O1    -21.028829    9.981181   17.132349 O    1224 MOH    -0.6497 ****
7651 HO1   -20.827911    9.089567   17.425091 H    1224 MOH     0.4215 ****
7652 HC1   -27.145278   -0.750850    7.511454 H    1225 MOH     0.0372 ****
7653 C1    -27.332339   -1.736770    7.936425 C    1225 MOH     0.1166 ****
7654 HC2   -27.724360   -1.642056    8.949002 H    1225 MOH     0.0372 ****
7655 HC3   -26.375092   -2.253204    8.005014 H    1225 MOH     0.0372 ****
7656 O1    -28.173539   -2.540611    7.087190 O    1225 MOH    -0.6497 ****
7657 HO1   -28.889453   -2.886805    7.624591 H    1225 MOH     0.4215 ****
7658 HC1   -24.514870   -0.278915   14.148358 H    1226 MOH     0.0372 ****
7659 C1    -25.363575    0.155869   14.676567 C    1226 MOH     0.1166 ****
7660 HC2   -25.499829    1.183022   14.338570 H    1226 MOH     0.0372 ****
7661 HC3   -25.199030    0.143622   15.754197 H    1226 MOH     0.0372 ****
7662 O1    -26.529245   -0.542235   14.342812 O    1226 MOH    -0.6497 ****
7663 HO1   -26.502110   -1.342810   14.872435 H    1226 MOH     0.4215 ****
7664 HC1   -16.438317    8.491483   10.528678 H    1227 MOH     0.0372 ****
7665 C1    -16.632884    9.232862   11.303667 C    1227 MOH     0.1166 ****
7666 HC2   -17.696941    9.274911   11.536305 H    1227 MOH     0.0372 ****
7667 HC3   -16.331507   10.221231   10.956478 H    1227 MOH     0.0372 ****
7668 O1    -15.963158    8.902589   12.514941 O    1227 MOH    -0.6497 ****
7669 HO1   -16.180819    8.008117   12.787177 H    1227 MOH     0.4215 ****
7670 HC1   -25.620496    6.796844    4.534534 H    1228 MOH     0.0372 ****
7671 C1    -26.412620    6.264488    5.060622 C    1228 MOH     0.1166 ****
7672 HC2   -26.385485    6.522093    6.119160 H    1228 MOH     0.0372 ****
7673 HC3   -26.246921    5.196919    4.918493 H    1228 MOH     0.0372 ****
7674 O1    -27.641222    6.680085    4.504836 O    1228 MOH    -0.6497 ****
7675 HO1   -28.335774    6.321235    5.062743 H    1228 MOH     0.4215 ****
7676 HC1   -24.924211   14.687875    3.415184 H    1229 MOH     0.0372 ****
7677 C1    -24.386698   15.030396    2.530593 C    1229 MOH     0.1166 ****
7678 HC2   -24.714633   14.456399    1.663681 H    1229 MOH     0.0372 ****
7679 HC3   -23.327260   14.845867    2.708784 H    1229 MOH     0.0372 ****
7680 O1    -24.647083   16.411091    2.261893 O    1229 MOH    -0.6497 ****
7681 HO1   -24.387853   16.616032    1.361039 H    1229 MOH     0.4215 ****
7682 HC1   -21.555372   12.855657   12.057443 H    1230 MOH     0.0372 ****
7683 C1    -21.506875   11.768084   12.006531 C    1230 MOH     0.1166 ****
7684 HC2   -21.885039   11.413316   11.048402 H    1230 MOH     0.0372 ****
7685 HC3   -22.113670   11.321460   12.794248 H    1230 MOH     0.0372 ****
7686 O1    -20.170309   11.333707   12.080071 O    1230 MOH    -0.6497 ****
7687 HO1   -20.202641   10.374324   12.101284 H    1230 MOH     0.4215 ****
7688 HC1   -22.358467    7.274086    4.979304 H    1231 MOH     0.0372 ****
7689 C1    -22.159858    8.234695    5.453773 C    1231 MOH     0.1166 ****
7690 HC2   -21.095224    8.451883    5.370334 H    1231 MOH     0.0372 ****
7691 HC3   -22.389066    8.199585    6.518676 H    1231 MOH     0.0372 ****
7692 O1    -22.953137    9.230412    4.802528 O    1231 MOH    -0.6497 ****
7693 HO1   -22.905795   10.006492    5.366092 H    1231 MOH     0.4215 ****
7694 HC1   -23.517209    1.806825    9.991277 H    1232 MOH     0.0372 ****
7695 C1    -23.469866    2.530241   10.805864 C    1232 MOH     0.1166 ****
7696 HC2   -24.263145    3.257740   10.634744 H    1232 MOH     0.0372 ****
7697 HC3   -22.509155    3.043818   10.759195 H    1232 MOH     0.0372 ****
7698 O1    -23.655195    1.888475   12.099870 O    1232 MOH    -0.6497 ****
7699 HO1   -23.846876    2.564126   12.755358 H    1232 MOH     0.4215 ****
7700 HC1   -16.759324   10.521293   14.310285 H    1233 MOH     0.0372 ****
7701 C1    -16.676763   11.461081   14.856172 C    1233 MOH     0.1166 ****
7702 HC2   -17.503528   12.116728   14.583229 H    1233 MOH     0.0372 ****
7703 HC3   -15.719516   11.923218   14.611513 H    1233 MOH     0.0372 ****
7704 O1    -16.717755   11.103047   16.197553 O    1233 MOH    -0.6497 ****
7705 HO1   -16.493743   11.846059   16.761825 H    1233 MOH     0.4215 ****
7706 HC1   -28.851925   15.145522   14.053605 H    1234 MOH     0.0372 ****
7707 C1    -29.517610   16.004476   14.138458 C    1234 MOH     0.1166 ****
7708 HC2   -30.559727   15.684410   14.131387 H    1234 MOH     0.0372 ****
7709 HC3   -29.382510   16.629096   13.255989 H    1234 MOH     0.0372 ****
7710 O1    -29.291866   16.801377   15.341954 O    1234 MOH    -0.6497 ****
7711 HO1   -29.364612   16.234320   16.111993 H    1234 MOH     0.4215 ****
7712 HC1   -28.777447    4.491466   23.003456 H    1235 MOH     0.0372 ****
7713 C1    -28.477802    3.444309   22.988607 C    1235 MOH     0.1166 ****
7714 HC2   -27.843872    3.255699   22.121694 H    1235 MOH     0.0372 ****
7715 HC3   -29.345560    2.790296   22.909411 H    1235 MOH     0.0372 ****
7716 O1    -27.772858    3.133224   24.182203 O    1235 MOH    -0.6497 ****
7717 HO1   -27.338690    2.284884   24.063409 H    1235 MOH     0.4215 ****
7718 HC1   -21.971642   -0.856178   10.595853 H    1236 MOH     0.0372 ****
7719 C1    -22.651761   -1.424868   11.230128 C    1236 MOH     0.1166 ****
7720 HC2   -22.297268   -1.387718   12.260383 H    1236 MOH     0.0372 ****
7721 HC3   -22.706609   -2.461411   10.898495 H    1236 MOH     0.0372 ****
7722 O1    -23.884403   -0.801881   11.148104 O    1236 MOH    -0.6497 ****
7723 HO1   -23.782212    0.090958   11.483980 H    1236 MOH     0.4215 ****
7724 HC1   -28.103679    5.607209   15.579542 H    1237 MOH     0.0372 ****
7725 C1    -28.243975    5.452891   14.510397 C    1237 MOH     0.1166 ****
7726 HC2   -28.440274    6.407375   14.021079 H    1237 MOH     0.0372 ****
7727 HC3   -29.078246    4.773974   14.334327 H    1237 MOH     0.0372 ****
7728 O1    -27.068490    4.898490   13.958853 O    1237 MOH    -0.6497 ****
7729 HO1   -26.421858    4.797652   14.661010 H    1237 MOH     0.4215 ****
7730 HC1   -25.340481   13.643576   16.870012 H    1238 MOH     0.0372 ****
7731 C1    -24.857816   12.677661   16.722934 C    1238 MOH     0.1166 ****
7732 HC2   -25.630888   11.923626   16.575148 H    1238 MOH     0.0372 ****
7733 HC3   -24.293167   12.435161   17.622373 H    1238 MOH     0.0372 ****
7734 O1    -23.949644   12.705422   15.600048 O    1238 MOH    -0.6497 ****
7735 HO1   -23.238348   13.309629   15.829151 H    1238 MOH     0.4215 ****
7736 HC1   -21.641975   -0.481815   15.824908 H    1239 MOH     0.0372 ****
7737 C1    -21.808252   -0.394858   16.899003 C    1239 MOH     0.1166 ****
7738 HC2   -21.736083    0.661281   17.158512 H    1239 MOH     0.0372 ****
7739 HC3   -21.021323   -0.948851   17.411656 H    1239 MOH     0.0372 ****
7740 O1    -23.133848   -0.913741   17.133056 O    1239 MOH    -0.6497 ****
7741 HO1   -23.445040   -0.565097   17.971684 H    1239 MOH     0.4215 ****
7742 HC1   -26.846210   18.444984    7.997943 H    1240 MOH     0.0372 ****
7743 C1    -27.427025   18.826288    8.837986 C    1240 MOH     0.1166 ****
7744 HC2   -27.129689   19.833437    9.130021 H    1240 MOH     0.0372 ****
7745 HC3   -27.219179   18.171050    9.684393 H    1240 MOH     0.0372 ****
7746 O1    -28.806314   18.782606    8.553022 O    1240 MOH    -0.6497 ****
7747 HO1   -29.211614   18.107771    9.102444 H    1240 MOH     0.4215 ****
7748 HC1   -22.048430    5.656199   14.643333 H    1241 MOH     0.0372 ****
7749 C1    -22.065173    4.649050   14.225433 C    1241 MOH     0.1166 ****
7750 HC2   -21.563455    3.990545   14.933246 H    1241 MOH     0.0372 ****
7751 HC3   -21.513803    4.620473   13.284981 H    1241 MOH     0.0372 ****
7752 O1    -23.408089    4.213449   14.076233 O    1241 MOH    -0.6497 ****
7753 HO1   -23.899992    4.474320   14.859000 H    1241 MOH     0.4215 ****
7754 HC1   -27.913731    9.447192   13.775005 H    1242 MOH     0.0372 ****
7755 C1    -28.977210    9.648050   13.643484 C    1242 MOH     0.1166 ****
7756 HC2   -29.559179    8.727042   13.670354 H    1242 MOH     0.0372 ****
7757 HC3   -29.142332   10.118761   12.674040 H    1242 MOH     0.0372 ****
7758 O1    -29.427543   10.538440   14.622826 O    1242 MOH    -0.6497 ****
7759 HO1   -29.317269   11.432912   14.292608 H    1242 MOH     0.4215 ****
7760 HC1   -24.200791   12.374741   10.978398 H    1243 MOH     0.0372 ****
7761 C1    -24.604937   12.720527   10.027340 C    1243 MOH     0.1166 ****
7762 HC2   -25.537935   12.197153    9.815207 H    1243 MOH     0.0372 ****
7763 HC3   -23.883826   12.575599    9.223359 H    1243 MOH     0.0372 ****
7764 O1    -24.851465   14.086526   10.181489 O    1243 MOH    -0.6497 ****
7765 HO1   -24.027009   14.542131   10.369579 H    1243 MOH     0.4215 ****
7766 HC1   -28.433346    1.118927   16.181997 H    1244 MOH     0.0372 ****
7767 C1    -28.619253    1.704763   15.281850 C    1244 MOH     0.1166 ****
7768 HC2   -28.601355    1.080960   14.388067 H    1244 MOH     0.0372 ****
7769 HC3   -27.871584    2.490233   15.172956 H    1244 MOH     0.0372 ****
7770 O1    -29.861711    2.293049   15.411251 O    1244 MOH    -0.6497 ****
7771 HO1   -30.160201    2.403684   14.505447 H    1244 MOH     0.4215 ****
7772 HC1   -27.248623    4.693957   17.601160 H    1245 MOH     0.0372 ****
7773 C1    -26.494604    3.940331   17.373472 C    1245 MOH     0.1166 ****
7774 HC2   -26.980733    3.050758   16.973957 H    1245 MOH     0.0372 ****
7775 HC3   -26.005588    3.650883   18.303317 H    1245 MOH     0.0372 ****
7776 O1    -25.560451    4.482485   16.428777 O    1245 MOH    -0.6497 ****
7777 HO1   -25.343945    5.380223   16.688285 H    1245 MOH     0.4215 ****
7778 HC1   -29.003191   13.046717    8.514838 H    1246 MOH     0.0372 ****
7779 C1    -29.240482   12.760127    9.540143 C    1246 MOH     0.1166 ****
7780 HC2   -28.478379   12.097540    9.949558 H    1246 MOH     0.0372 ****
7781 HC3   -30.193687   12.231445    9.521051 H    1246 MOH     0.0372 ****
7782 O1    -29.342095   13.886484   10.378064 O    1246 MOH    -0.6497 ****
7783 HO1   -28.568446   14.442926   10.258563 H    1246 MOH     0.4215 ****
7784 HC1   -21.961250   14.262072    9.311747 H    1247 MOH     0.0372 ****
7785 C1    -21.540939   15.145522    9.792580 C    1247 MOH     0.1166 ****
7786 HC2   -21.287482   15.887309    9.035269 H    1247 MOH     0.0372 ****
7787 HC3   -20.654129   14.862606   10.358973 H    1247 MOH     0.0372 ****
7788 O1    -22.546105   15.641952   10.615652 O    1247 MOH    -0.6497 ****
7789 HO1   -22.189880   15.838319   11.484687 H    1247 MOH     0.4215 ****
7790 HC1   -29.942540   -2.367513   17.903095 H    1248 MOH     0.0372 ****
7791 C1    -28.866359   -2.359348   17.733389 C    1248 MOH     0.1166 ****
7792 HC2   -28.446048   -1.499169   18.253113 H    1248 MOH     0.0372 ****
7793 HC3   -28.662554   -2.298928   16.664244 H    1248 MOH     0.0372 ****
7794 O1    -28.272843   -3.504077   18.234021 O    1248 MOH    -0.6497 ****
7795 HO1   -28.734723   -3.765356   19.033052 H    1248 MOH     0.4215 ****
7796 HC1   -28.633109    8.558436    9.086180 H    1249 MOH     0.0372 ****
7797 C1    -28.618676    9.265930    8.256744 C    1249 MOH     0.1166 ****
7798 HC2   -29.609409    9.697040    8.115323 H    1249 MOH     0.0372 ****
7799 HC3   -28.279771    8.772766    7.345991 H    1249 MOH     0.0372 ****
7800 O1    -27.741681   10.317577    8.563628 O    1249 MOH    -0.6497 ****
7801 HO1   -27.545381   10.324518    9.503373 H    1249 MOH     0.4215 ****
7802 HC1   -22.501650    4.723759   22.415850 H    1250 MOH     0.0372 ****
7803 C1    -22.426594    5.765609   22.106138 C    1250 MOH     0.1166 ****
7804 HC2   -21.387941    5.990146   21.862893 H    1250 MOH     0.0372 ****
7805 HC3   -22.788593    6.366959   22.941231 H    1250 MOH     0.0372 ****
7806 O1    -23.314559    5.923193   21.029921 O    1250 MOH    -0.6497 ****
7807 HO1   -22.947364    5.402676   20.312208 H    1250 MOH     0.4215 ****
7808 HC1   -23.879207   13.196953    6.437358 H    1251 MOH     0.0372 ****
7809 C1    -23.135580   12.676028    5.834903 C    1251 MOH     0.1166 ****
7810 HC2   -22.219903   13.265538    5.786820 H    1251 MOH     0.0372 ****
7811 HC3   -23.471598   12.554778    4.804649 H    1251 MOH     0.0372 ****
7812 O1    -22.797253   11.447200    6.418974 O    1251 MOH    -0.6497 ****
7813 HO1   -23.501043   11.175715    7.012236 H    1251 MOH     0.4215 ****
7814 HC1   -23.163293    7.519852   11.097192 H    1252 MOH     0.0372 ****
7815 C1    -23.202553    6.450241   10.892131 C    1252 MOH     0.1166 ****
7816 HC2   -23.980821    6.021989   11.523578 H    1252 MOH     0.0372 ****
7817 HC3   -22.233759    6.013824   11.136083 H    1252 MOH     0.0372 ****
7818 O1    -23.491228    6.158344    9.523880 O    1252 MOH    -0.6497 ****
7819 HO1   -23.061679    5.343889    9.251643 H    1252 MOH     0.4215 ****
7820 HC1   -19.001752    6.199985    8.850714 H    1253 MOH     0.0372 ****
7821 C1    -19.524254    7.129158    9.078402 C    1253 MOH     0.1166 ****
7822 HC2   -20.556556    6.916053    9.357002 H    1253 MOH     0.0372 ****
7823 HC3   -19.483840    7.775415    8.202297 H    1253 MOH     0.0372 ****
7824 O1    -18.836630    7.692541   10.144719 O    1253 MOH    -0.6497 ****
7825 HO1   -18.374172    6.977290   10.587368 H    1253 MOH     0.4215 ****
7826 HC1   -25.601443    1.414091   18.490701 H    1254 MOH     0.0372 ****
7827 C1    -25.350296    0.893574   19.414889 C    1254 MOH     0.1166 ****
7828 HC2   -26.017135    0.039927   19.535804 H    1254 MOH     0.0372 ****
7829 HC3   -25.473271    1.563509   20.265539 H    1254 MOH     0.0372 ****
7830 O1    -24.010266    0.462872   19.318016 O    1254 MOH    -0.6497 ****
7831 HO1   -23.820318   -0.092754   20.076741 H    1254 MOH     0.4215 ****
7832 HC1   -24.128623    8.344513    8.469583 H    1255 MOH     0.0372 ****
7833 C1    -25.065662    8.600485    7.976730 C    1255 MOH     0.1166 ****
7834 HC2   -25.903975    8.268579    8.589791 H    1255 MOH     0.0372 ****
7835 HC3   -25.084137    8.101606    7.007994 H    1255 MOH     0.0372 ****
7836 O1    -25.096262    9.984039    7.759648 O    1255 MOH    -0.6497 ****
7837 HO1   -26.012516   10.225313    7.607620 H    1255 MOH     0.4215 ****
7838 HC1   -27.458202    3.634553    6.761920 H    1256 MOH     0.0372 ****
7839 C1    -27.152783    2.654349    6.394932 C    1256 MOH     0.1166 ****
7840 HC2   -26.203619    2.733957    5.865309 H    1256 MOH     0.0372 ****
7841 HC3   -27.919504    2.262022    5.728130 H    1256 MOH     0.0372 ****
7842 O1    -26.999208    1.733749    7.469027 O    1256 MOH    -0.6497 ****
7843 HO1   -26.149926    1.299781    7.360840 H    1256 MOH     0.4215 ****
7844 HC1   -21.617149    0.986246   13.434887 H    1257 MOH     0.0372 ****
7845 C1    -20.745927    1.489616   13.015573 C    1257 MOH     0.1166 ****
7846 HC2   -21.043840    2.438794   12.572217 H    1257 MOH     0.0372 ****
7847 HC3   -20.307141    0.878061   12.226442 H    1257 MOH     0.0372 ****
7848 O1    -19.777134    1.764776   14.001280 O    1257 MOH    -0.6497 ****
7849 HO1   -19.347008    0.926642   14.184420 H    1257 MOH     0.4215 ****
7850 HC1   -30.172325    7.310012    1.687015 H    1258 MOH     0.0372 ****
7851 C1    -29.248565    7.498215    1.139007 C    1258 MOH     0.1166 ****
7852 HC2   -28.657935    6.583330    1.176484 H    1258 MOH     0.0372 ****
7853 HC3   -28.726063    8.321652    1.626204 H    1258 MOH     0.0372 ****
7854 O1    -29.521651    7.850533   -0.215102 O    1258 MOH    -0.6497 ****
7855 HO1   -28.739919    8.272662   -0.578555 H    1258 MOH     0.4215 ****
7856 HC1   -26.064478   16.565818   11.708132 H    1259 MOH     0.0372 ****
7857 C1    -27.079460   16.182472   11.604188 C    1259 MOH     0.1166 ****
7858 HC2   -27.800570   16.999785   11.625401 H    1259 MOH     0.0372 ****
7859 HC3   -27.314441   15.487634   12.410289 H    1259 MOH     0.0372 ****
7860 O1    -27.207054   15.470487   10.421905 O    1259 MOH    -0.6497 ****
7861 HO1   -26.486521   14.837294   10.390085 H    1259 MOH     0.4215 ****
7862 HC1   -26.530977    2.231812   11.780964 H    1260 MOH     0.0372 ****
7863 C1    -27.029230    1.456140   11.201137 C    1260 MOH     0.1166 ****
7864 HC2   -26.302346    0.710679   10.878696 H    1260 MOH     0.0372 ****
7865 HC3   -27.491688    1.930116   10.334931 H    1260 MOH     0.0372 ****
7866 O1    -28.004375    0.825396   11.998046 O    1260 MOH    -0.6497 ****
7867 HO1   -27.532680    0.456340   12.747579 H    1260 MOH     0.4215 ****
7868 HC1   -23.190428    8.283685   18.967998 H    1261 MOH     0.0372 ****
7869 C1    -23.812812    9.178157   18.958805 C    1261 MOH     0.1166 ****
7870 HC2   -23.368830    9.965259   19.568331 H    1261 MOH     0.0372 ****
7871 HC3   -24.784493    8.900139   19.368220 H    1261 MOH     0.0372 ****
7872 O1    -23.992368    9.630904   17.637223 O    1261 MOH    -0.6497 ****
7873 HO1   -23.135003    9.906471   17.304175 H    1261 MOH     0.4215 ****
7874 HC1   -27.206477   13.930575    7.487412 H    1262 MOH     0.0372 ****
7875 C1    -26.613538   13.592137    6.638177 C    1262 MOH     0.1166 ****
7876 HC2   -26.246343   12.596419    6.886371 H    1262 MOH     0.0372 ****
7877 HC3   -25.766565   14.262072    6.486149 H    1262 MOH     0.0372 ****
7878 O1    -27.417787   13.541106    5.467915 O    1262 MOH    -0.6497 ****
7879 HO1   -27.010755   12.890766    4.890209 H    1262 MOH     0.4215 ****
7880 HC1   -27.561547    8.463314   16.808494 H    1263 MOH     0.0372 ****
7881 C1    -27.107750    9.342681   17.265285 C    1263 MOH     0.1166 ****
7882 HC2   -26.270592    9.659481   16.643031 H    1263 MOH     0.0372 ****
7883 HC3   -26.804064    9.093649   18.282104 H    1263 MOH     0.0372 ****
7884 O1    -28.058069   10.340439   17.229929 O    1263 MOH    -0.6497 ****
7885 HO1   -28.386003   10.395961   16.329075 H    1263 MOH     0.4215 ****
7886 HC1   -20.198599   11.782372   22.185334 H    1264 MOH     0.0372 ****
7887 C1    -20.451479   12.647042   22.799102 C    1264 MOH     0.1166 ****
7888 HC2   -19.643766   12.830346   23.506916 H    1264 MOH     0.0372 ****
7889 HC3   -21.369466   12.414341   23.337918 H    1264 MOH     0.0372 ****
7890 O1    -20.643736   13.755436   21.942796 O    1264 MOH    -0.6497 ****
7891 HO1   -21.329051   13.484360   21.327613 H    1264 MOH     0.4215 ****
7892 HC1   -23.939252    4.522901   18.651214 H    1265 MOH     0.0372 ****
7893 C1    -23.116528    3.832145   18.465952 C    1265 MOH     0.1166 ****
7894 HC2   -22.841132    3.953395   17.418727 H    1265 MOH     0.0372 ****
7895 HC3   -23.424833    2.792337   18.572725 H    1265 MOH     0.0372 ****
7896 O1    -22.026490    4.142822   19.350543 O    1265 MOH    -0.6497 ****
7897 HO1   -21.415654    3.402260   19.363270 H    1265 MOH     0.4215 ****
7898 HC1   -28.192014    5.864405    9.455997 H    1266 MOH     0.0372 ****
7899 C1    -27.264789    5.687634    9.999762 C    1266 MOH     0.1166 ****
7900 HC2   -27.330607    4.762951   10.573226 H    1266 MOH     0.0372 ****
7901 HC3   -27.041355    6.524134   10.662321 H    1266 MOH     0.0372 ****
7902 O1    -26.261354    5.585572    9.069210 O    1266 MOH    -0.6497 ****
7903 HO1   -25.451332    5.926459    9.455997 H    1266 MOH     0.4215 ****
7904 HC1   -30.288950    6.008517    4.183102 H    1267 MOH     0.0372 ****
7905 C1    -30.008935    5.100164    4.716968 C    1267 MOH     0.1166 ****
7906 HC2   -29.200645    4.604551    4.179566 H    1267 MOH     0.0372 ****
7907 HC3   -30.839742    4.394303    4.740302 H    1267 MOH     0.0372 ****
7908 O1    -29.571303    5.361443    6.036429 O    1267 MOH    -0.6497 ****
7909 HO1   -29.918868    4.656807    6.587972 H    1267 MOH     0.4215 ****
7910 HC1   -19.105098    5.480652   17.586311 H    1268 MOH     0.0372 ****
7911 C1    -19.936482    6.164059   17.416605 C    1268 MOH     0.1166 ****
7912 HC2   -20.858511    5.703964   17.773694 H    1268 MOH     0.0372 ****
7913 HC3   -20.006919    6.352262   16.345339 H    1268 MOH     0.0372 ****
7914 O1    -19.608547    7.384722   18.068558 O    1268 MOH    -0.6497 ****
7915 HO1   -18.995401    7.187538   18.780614 H    1268 MOH     0.4215 ****
7916 HC1   -19.345276    8.306955   13.608835 H    1269 MOH     0.0372 ****
7917 C1    -20.355061    7.986071   13.352863 C    1269 MOH     0.1166 ****
7918 HC2   -21.052500    8.416773   14.071990 H    1269 MOH     0.0372 ****
7919 HC3   -20.436468    6.899723   13.387511 H    1269 MOH     0.0372 ****
7920 O1    -20.710132    8.445351   12.080778 O    1269 MOH    -0.6497 ****
7921 HO1   -20.111419    8.037919   11.451453 H    1269 MOH     0.4215 ****
7922 HC1   -25.854900   -4.478974   16.023605 H    1270 MOH     0.0372 ****
7923 C1    -25.273508   -3.721673   16.550400 C    1270 MOH     0.1166 ****
7924 HC2   -24.219844   -3.965805   16.413221 H    1270 MOH     0.0372 ****
7925 HC3   -25.503294   -3.711058   17.615302 H    1270 MOH     0.0372 ****
7926 O1    -25.401680   -2.461410   15.998149 O    1270 MOH    -0.6497 ****
7927 HO1   -24.603205   -1.984985   16.239273 H    1270 MOH     0.4215 ****
7928 HC1   -23.542035   15.415374   14.883042 H    1271 MOH     0.0372 ****
7929 C1    -24.034514   15.851791   14.014008 C    1271 MOH     0.1166 ****
7930 HC2   -24.976750   16.339240   14.264323 H    1271 MOH     0.0372 ****
7931 HC3   -24.286817   15.017332   13.359227 H    1271 MOH     0.0372 ****
7932 O1    -23.196779   16.776882   13.313972 O    1271 MOH    -0.6497 ****
7933 HO1   -23.737756   17.476620   12.942034 H    1271 MOH     0.4215 ****
7934 HC1   -25.634352   -4.801490   11.360943 H    1272 MOH     0.0372 ****
7935 C1    -25.667261   -3.716366   11.261948 C    1272 MOH     0.1166 ****
7936 HC2   -25.222124   -3.247288   12.139468 H    1272 MOH     0.0372 ****
7937 HC3   -26.704759   -3.390584   11.186995 H    1272 MOH     0.0372 ****
7938 O1    -24.981369   -3.339144   10.096636 O    1272 MOH    -0.6497 ****
7939 HO1   -24.879755   -2.385885   10.136941 H    1272 MOH     0.4215 ****
7940 HC1   -17.200997    4.015449   12.543933 H    1273 MOH     0.0372 ****
7941 C1    -18.106859    4.340006   12.032694 C    1273 MOH     0.1166 ****
7942 HC2   -18.992515    3.947271   12.531912 H    1273 MOH     0.0372 ****
7943 HC3   -18.099354    3.991770   10.999611 H    1273 MOH     0.0372 ****
7944 O1    -18.199813    5.732133   12.046837 O    1273 MOH    -0.6497 ****
7945 HO1   -17.929613    6.017498   12.922942 H    1273 MOH     0.4215 ****
7946 HC1   -24.666713    8.579256   14.528781 H    1274 MOH     0.0372 ****
7947 C1    -24.003338    7.757452   14.798189 C    1274 MOH     0.1166 ****
7948 HC2   -22.987201    8.143655   14.875971 H    1274 MOH     0.0372 ****
7949 HC3   -24.017194    6.974840   14.039463 H    1274 MOH     0.0372 ****
7950 O1    -24.381502    7.330425   16.085123 O    1274 MOH    -0.6497 ****
7951 HO1   -24.327808    8.099565   16.656466 H    1274 MOH     0.4215 ****
7952 HC1   -20.886801   14.778507   18.632122 H    1275 MOH     0.0372 ****
7953 C1    -21.226283   14.032637   17.912994 C    1275 MOH     0.1166 ****
7954 HC2   -21.732619   13.195320   18.394534 H    1275 MOH     0.0372 ****
7955 HC3   -20.339473   13.635820   17.418020 H    1275 MOH     0.0372 ****
7956 O1    -22.067482   14.653174   16.958400 O    1275 MOH    -0.6497 ****
7957 HO1   -21.538052   15.338215   16.542621 H    1275 MOH     0.4215 ****
7958 HC1   -27.518246   12.274720   12.794955 H    1276 MOH     0.0372 ****
7959 C1    -26.861799   12.550287   13.620149 C    1276 MOH     0.1166 ****
7960 HC2   -27.408549   12.514362   14.563430 H    1276 MOH     0.0372 ****
7961 HC3   -26.515389   13.572949   13.469535 H    1276 MOH     0.0372 ****
7962 O1    -25.742894   11.678269   13.685203 O    1276 MOH    -0.6497 ****
7963 HO1   -25.137831   12.004868   14.355540 H    1276 MOH     0.4215 ****
7964 HC1   -28.552280   16.523360    7.000215 H    1277 MOH     0.0372 ****
7965 C1    -29.399830   15.858731    7.169921 C    1277 MOH     0.1166 ****
7966 HC2   -30.265279   16.502539    7.326192 H    1277 MOH     0.0372 ****
7967 HC3   -29.167158   15.256974    8.048148 H    1277 MOH     0.0372 ****
7968 O1    -29.533198   15.156953    5.954404 O    1277 MOH    -0.6497 ****
7969 HO1   -28.687380   14.751154    5.749343 H    1277 MOH     0.4215 ****
7970 HC1   -30.663650   -2.282598   12.410289 H    1278 MOH     0.0372 ****
7971 C1    -29.628461   -1.978453   12.254019 C    1278 MOH     0.1166 ****
7972 HC2   -29.039564   -2.881090   12.086435 H    1278 MOH     0.0372 ****
7973 HC3   -29.255493   -1.421602   13.112446 H    1278 MOH     0.0372 ****
7974 O1    -29.630771   -1.246872   11.077393 O    1278 MOH    -0.6497 ****
7975 HO1   -28.993376   -0.537745   11.186995 H    1278 MOH     0.4215 ****
7976 HC1   -17.601100    2.909504   16.981028 H    1279 MOH     0.0372 ****
7977 C1    -17.217163    3.506363   16.153713 C    1279 MOH     0.1166 ****
7978 HC2   -16.529538    2.889092   15.575299 H    1279 MOH     0.0372 ****
7979 HC3   -16.716023    4.368175   16.595655 H    1279 MOH     0.0372 ****
7980 O1    -18.282374    3.946046   15.366703 O    1279 MOH    -0.6497 ****
7981 HO1   -18.811804    3.189971   15.105073 H    1279 MOH     0.4215 ****
7982 HC1   -27.134886   11.905663   21.581464 H    1280 MOH     0.0372 ****
7983 C1    -27.071377   10.982614   21.005172 C    1280 MOH     0.1166 ****
7984 HC2   -26.039652   10.778490   20.719501 H    1280 MOH     0.0372 ****
7985 HC3   -27.688564   11.094474   20.114218 H    1280 MOH     0.0372 ****
7986 O1    -27.589260    9.929333   21.770262 O    1280 MOH    -0.6497 ****
7987 HO1   -27.339267    9.104672   21.345998 H    1280 MOH     0.4215 ****
7988 HC1   -17.709065    8.366151   15.716721 H    1281 MOH     0.0372 ****
7989 C1    -17.068784    7.490866   15.825615 C    1281 MOH     0.1166 ****
7990 HC2   -17.218895    7.089967   16.828293 H    1281 MOH     0.0372 ****
7991 HC3   -16.030130    7.803585   15.719549 H    1281 MOH     0.0372 ****
7992 O1    -17.448103    6.549038   14.822231 O    1281 MOH    -0.6497 ****
7993 HO1   -17.519117    5.675794   15.214675 H    1281 MOH     0.4215 ****
7994 HC1   -19.573329   10.579673   20.137552 H    1282 MOH     0.0372 ****
7995 C1    -18.714809   10.941381   19.571867 C    1282 MOH     0.1166 ****
7996 HC2   -19.062951   11.460673   18.679498 H    1282 MOH     0.0372 ****
7997 HC3   -18.085497   10.100798   19.278418 H    1282 MOH     0.0372 ****
7998 O1    -17.965409   11.830954   20.367362 O    1282 MOH    -0.6497 ****
7999 HO1   -17.797977   11.412499   21.215183 H    1282 MOH     0.4215 ****
8000 HC1   -18.774276   11.900764   10.205530 H    1283 MOH     0.0372 ****
8001 C1    -19.221145   12.314728    9.301848 C    1283 MOH     0.1166 ****
8002 HC2   -20.248829   12.633570    9.473675 H    1283 MOH     0.0372 ****
8003 HC3   -19.190546   11.542322    8.532516 H    1283 MOH     0.0372 ****
8004 O1    -18.410545   13.379031    8.913646 O    1283 MOH    -0.6497 ****
8005 HO1   -18.228680   13.925268    9.681564 H    1283 MOH     0.4215 ****
8006 HC1   -25.548327    9.648458    4.799699 H    1284 MOH     0.0372 ****
8007 C1    -26.472665   10.163668    4.538070 C    1284 MOH     0.1166 ****
8008 HC2   -27.185692   10.116719    5.361849 H    1284 MOH     0.0372 ****
8009 HC3   -26.908564    9.717452    3.644994 H    1284 MOH     0.0372 ****
8010 O1    -26.234796   11.512928    4.258762 O    1284 MOH    -0.6497 ****
8011 HO1   -25.730192   11.543139    3.442761 H    1284 MOH     0.4215 ****
8012 HC1   -25.900511   -6.354874   14.523832 H    1285 MOH     0.0372 ****
8013 C1    -25.062775   -6.126664   13.864101 C    1285 MOH     0.1166 ****
8014 HC2   -24.705396   -5.125231   14.099568 H    1285 MOH     0.0372 ****
8015 HC3   -25.413227   -6.171571   12.833139 H    1285 MOH     0.0372 ****
8016 O1    -23.981976   -7.068492   14.068455 O    1285 MOH    -0.6497 ****
8017 HO1   -23.148859   -6.680248   13.790562 H    1285 MOH     0.4215 ****
8018 HC1   -25.010814   12.513953   21.636619 H    1286 MOH     0.0372 ****
8019 C1    -24.085321   12.813608   22.130179 C    1286 MOH     0.1166 ****
8020 HC2   -23.641339   11.959552   22.642125 H    1286 MOH     0.0372 ****
8021 HC3   -24.331273   13.565601   22.879712 H    1286 MOH     0.0372 ****
8022 O1    -23.203130   13.312895   21.104167 O    1286 MOH    -0.6497 ****
8023 HO1   -23.393656   14.251050   21.029214 H    1286 MOH     0.4215 ****
8024 HC1   -26.593908   16.382922   16.984563 H    1287 MOH     0.0372 ****
8025 C1    -25.648209   16.725851   17.404585 C    1287 MOH     0.1166 ****
8026 HC2   -25.761947   17.700340   17.880467 H    1287 MOH     0.0372 ****
8027 HC3   -24.918438   16.839344   16.602725 H    1287 MOH     0.0372 ****
8028 O1    -25.206536   15.803618   18.376856 O    1287 MOH    -0.6497 ****
8029 HO1   -24.375151   15.415374   18.094721 H    1287 MOH     0.4215 ****
8030 HC1   -26.675892    8.317161   12.055322 H    1288 MOH     0.0372 ****
8031 C1    -25.894160    8.990362   11.703890 C    1288 MOH     0.1166 ****
8032 HC2   -25.334707    8.555578   10.875868 H    1288 MOH     0.0372 ****
8033 HC3   -25.208845    9.195303   12.525548 H    1288 MOH     0.0372 ****
8034 O1    -26.468046   10.189796   11.258412 O    1288 MOH    -0.6497 ****
8035 HO1   -26.272901   10.833195   11.944306 H    1288 MOH     0.4215 ****
8036 HC1   -15.168262   21.756123   20.924562 H    1289 MOH     0.0372 ****
8037 C1    -15.107063   22.535877   21.682581 C    1289 MOH     0.1166 ****
8038 HC2   -14.746796   22.090070   22.610305 H    1289 MOH     0.0372 ****
8039 HC3   -16.100105   22.961272   21.828245 H    1289 MOH     0.0372 ****
8040 O1    -14.235841   23.558539   21.254781 O    1289 MOH    -0.6497 ****
8041 HO1   -13.349031   23.198464   21.188313 H    1289 MOH     0.4215 ****
8042 HC1    -8.909785   26.505275   15.143964 H    1290 MOH     0.0372 ****
8043 C1     -8.476195   26.698377   16.124721 C    1290 MOH     0.1166 ****
8044 HC2    -8.190407   27.749208   16.175633 H    1290 MOH     0.0372 ****
8045 HC3    -7.588230   26.079064   16.251293 H    1290 MOH     0.0372 ****
8046 O1     -9.430555   26.383617   17.132349 O    1290 MOH    -0.6497 ****
8047 HO1    -9.229637   25.492003   17.425091 H    1290 MOH     0.4215 ****
8048 HC1   -15.547004   15.651586    7.511454 H    1291 MOH     0.0372 ****
8049 C1    -15.734065   14.665667    7.936425 C    1291 MOH     0.1166 ****
8050 HC2   -16.126086   14.760380    8.949002 H    1291 MOH     0.0372 ****
8051 HC3   -14.776818   14.149233    8.005014 H    1291 MOH     0.0372 ****
8052 O1    -16.575264   13.861826    7.087190 O    1291 MOH    -0.6497 ****
8053 HO1   -17.291179   13.515631    7.624591 H    1291 MOH     0.4215 ****
8054 HC1   -12.916596   16.123521   14.148358 H    1292 MOH     0.0372 ****
8055 C1    -13.765301   16.558306   14.676567 C    1292 MOH     0.1166 ****
8056 HC2   -13.901555   17.585459   14.338570 H    1292 MOH     0.0372 ****
8057 HC3   -13.600756   16.546058   15.754197 H    1292 MOH     0.0372 ****
8058 O1    -14.930971   15.860201   14.342812 O    1292 MOH    -0.6497 ****
8059 HO1   -14.903835   15.059626   14.872435 H    1292 MOH     0.4215 ****
8060 HC1    -4.840043   24.893919   10.528678 H    1293 MOH     0.0372 ****
8061 C1     -5.034610   25.635298   11.303667 C    1293 MOH     0.1166 ****
8062 HC2    -6.098666   25.677348   11.536305 H    1293 MOH     0.0372 ****
8063 HC3    -4.733233   26.623667   10.956478 H    1293 MOH     0.0372 ****
8064 O1     -4.364884   25.305025   12.514941 O    1293 MOH    -0.6497 ****
8065 HO1    -4.582545   24.410553   12.787177 H    1293 MOH     0.4215 ****
8066 HC1   -14.022222   23.199281    4.534534 H    1294 MOH     0.0372 ****
8067 C1    -14.814346   22.666925    5.060622 C    1294 MOH     0.1166 ****
8068 HC2   -14.787211   22.924530    6.119160 H    1294 MOH     0.0372 ****
8069 HC3   -14.648647   21.599356    4.918493 H    1294 MOH     0.0372 ****
8070 O1    -16.042947   23.082522    4.504836 O    1294 MOH    -0.6497 ****
8071 HO1   -16.737500   22.723671    5.062743 H    1294 MOH     0.4215 ****
8072 HC1    -9.957098   29.258094   12.057443 H    1295 MOH     0.0372 ****
8073 C1     -9.908601   28.170520   12.006531 C    1295 MOH     0.1166 ****
8074 HC2   -10.286765   27.815752   11.048402 H    1295 MOH     0.0372 ****
8075 HC3   -10.515396   27.723897   12.794248 H    1295 MOH     0.0372 ****
8076 O1     -8.572035   27.736144   12.080071 O    1295 MOH    -0.6497 ****
8077 HO1    -8.604367   26.776761   12.101284 H    1295 MOH     0.4215 ****
8078 HC1   -10.760192   23.676523    4.979304 H    1296 MOH     0.0372 ****
8079 C1    -10.561584   24.637131    5.453773 C    1296 MOH     0.1166 ****
8080 HC2    -9.496950   24.854319    5.370334 H    1296 MOH     0.0372 ****
8081 HC3   -10.790792   24.602022    6.518676 H    1296 MOH     0.0372 ****
8082 O1    -11.354863   25.632849    4.802528 O    1296 MOH    -0.6497 ****
8083 HO1   -11.307521   26.408929    5.366092 H    1296 MOH     0.4215 ****
8084 HC1   -25.185289   22.389724   13.424988 H    1297 MOH     0.0372 ****
8085 C1    -24.270766   22.695911   12.917285 C    1297 MOH     0.1166 ****
8086 HC2   -23.675518   23.350333   13.554388 H    1297 MOH     0.0372 ****
8087 HC3   -24.546162   23.242147   12.015017 H    1297 MOH     0.0372 ****
8088 O1    -23.568708   21.556490   12.519184 O    1297 MOH    -0.6497 ****
8089 HO1   -22.633978   21.755307   12.608986 H    1297 MOH     0.4215 ****
8090 HC1   -11.918935   18.209262    9.991277 H    1298 MOH     0.0372 ****
8091 C1    -11.871592   18.932678   10.805864 C    1298 MOH     0.1166 ****
8092 HC2   -12.664871   19.660176   10.634744 H    1298 MOH     0.0372 ****
8093 HC3   -10.910881   19.446254   10.759195 H    1298 MOH     0.0372 ****
8094 O1    -12.056921   18.290912   12.099870 O    1298 MOH    -0.6497 ****
8095 HO1   -12.248602   18.966562   12.755358 H    1298 MOH     0.4215 ****
8096 HC1    -5.161050   26.923730   14.310285 H    1299 MOH     0.0372 ****
8097 C1     -5.078489   27.863517   14.856172 C    1299 MOH     0.1166 ****
8098 HC2    -5.905254   28.519164   14.583229 H    1299 MOH     0.0372 ****
8099 HC3    -4.121242   28.325655   14.611513 H    1299 MOH     0.0372 ****
8100 O1     -5.119480   27.505484   16.197553 O    1299 MOH    -0.6497 ****
8101 HO1    -4.895469   28.248496   16.761825 H    1299 MOH     0.4215 ****
8102 HC1   -17.179173   20.893903   23.003456 H    1300 MOH     0.0372 ****
8103 C1    -16.879528   19.846746   22.988607 C    1300 MOH     0.1166 ****
8104 HC2   -16.245598   19.658135   22.121694 H    1300 MOH     0.0372 ****
8105 HC3   -17.747286   19.192732   22.909411 H    1300 MOH     0.0372 ****
8106 O1    -16.174583   19.535661   24.182203 O    1300 MOH    -0.6497 ****
8107 HO1   -15.740416   18.687321   24.063409 H    1300 MOH     0.4215 ****
8108 HC1   -26.486636   17.389499    4.646964 H    1301 MOH     0.0372 ****
8109 C1    -26.073831   18.397056    4.610194 C    1301 MOH     0.1166 ****
8110 HC2   -26.159279   18.867766    5.589537 H    1301 MOH     0.0372 ****
8111 HC3   -26.650604   18.984934    3.896017 H    1301 MOH     0.0372 ****
8112 O1    -24.734378   18.341534    4.178859 O    1301 MOH    -0.6497 ****
8113 HO1   -24.700892   17.680989    3.483066 H    1301 MOH     0.4215 ****
8114 HC1   -10.373368   15.546258   10.595853 H    1302 MOH     0.0372 ****
8115 C1    -11.053486   14.977568   11.230128 C    1302 MOH     0.1166 ****
8116 HC2   -10.698993   15.014719   12.260383 H    1302 MOH     0.0372 ****
8117 HC3   -11.108335   13.941026   10.898495 H    1302 MOH     0.0372 ****
8118 O1    -12.286129   15.600555   11.148104 O    1302 MOH    -0.6497 ****
8119 HO1   -12.183938   16.493394   11.483980 H    1302 MOH     0.4215 ****
8120 HC1   -16.505405   22.009645   15.579542 H    1303 MOH     0.0372 ****
8121 C1    -16.645701   21.855327   14.510397 C    1303 MOH     0.1166 ****
8122 HC2   -16.842000   22.809812   14.021079 H    1303 MOH     0.0372 ****
8123 HC3   -17.479972   21.176410   14.334327 H    1303 MOH     0.0372 ****
8124 O1    -15.470216   21.300926   13.958853 O    1303 MOH    -0.6497 ****
8125 HO1   -14.823584   21.200089   14.661010 H    1303 MOH     0.4215 ****
8126 HC1   -19.049210   21.803480    8.210782 H    1304 MOH     0.0372 ****
8127 C1    -19.210291   20.790616    8.579185 C    1304 MOH     0.1166 ****
8128 HC2   -19.961424   20.835523    9.366902 H    1304 MOH     0.0372 ****
8129 HC3   -18.285376   20.390124    8.994257 H    1304 MOH     0.0372 ****
8130 O1    -19.661779   19.943909    7.522767 O    1304 MOH    -0.6497 ****
8131 HO1   -19.257056   19.085771    7.672674 H    1304 MOH     0.4215 ****
8132 HC1   -10.043701   15.920622   15.824908 H    1305 MOH     0.0372 ****
8133 C1    -10.209978   16.007579   16.899003 C    1305 MOH     0.1166 ****
8134 HC2   -10.137809   17.063717   17.158512 H    1305 MOH     0.0372 ****
8135 HC3    -9.423049   15.453586   17.411656 H    1305 MOH     0.0372 ****
8136 O1    -11.535574   15.488695   17.133056 O    1305 MOH    -0.6497 ****
8137 HO1   -11.846766   15.837339   17.971684 H    1305 MOH     0.4215 ****
8138 HC1   -10.450155   22.058635   14.643333 H    1306 MOH     0.0372 ****
8139 C1    -10.466899   21.051486   14.225433 C    1306 MOH     0.1166 ****
8140 HC2    -9.965181   20.392982   14.933246 H    1306 MOH     0.0372 ****
8141 HC3    -9.915529   21.022909   13.284981 H    1306 MOH     0.0372 ****
8142 O1    -11.809815   20.615886   14.076233 O    1306 MOH    -0.6497 ****
8143 HO1   -12.301718   20.876756   14.859000 H    1306 MOH     0.4215 ****
8144 HC1   -16.835072   17.521364   16.181997 H    1307 MOH     0.0372 ****
8145 C1    -17.020979   18.107200   15.281850 C    1307 MOH     0.1166 ****
8146 HC2   -17.003081   17.483396   14.388067 H    1307 MOH     0.0372 ****
8147 HC3   -16.273310   18.892670   15.172956 H    1307 MOH     0.0372 ****
8148 O1    -18.263437   18.695486   15.411251 O    1307 MOH    -0.6497 ****
8149 HO1   -18.561927   18.806121   14.505447 H    1307 MOH     0.4215 ****
8150 HC1   -15.650349   21.096394   17.601160 H    1308 MOH     0.0372 ****
8151 C1    -14.896330   20.342767   17.373472 C    1308 MOH     0.1166 ****
8152 HC2   -15.382459   19.453194   16.973957 H    1308 MOH     0.0372 ****
8153 HC3   -14.407314   20.053319   18.303317 H    1308 MOH     0.0372 ****
8154 O1    -13.962177   20.884921   16.428777 O    1308 MOH    -0.6497 ****
8155 HO1   -13.745671   21.782659   16.688285 H    1308 MOH     0.4215 ****
8156 HC1   -19.713741   14.466850   14.866778 H    1309 MOH     0.0372 ****
8157 C1    -20.120772   15.467466   14.721821 C    1309 MOH     0.1166 ****
8158 HC2   -21.166354   15.421743   14.416351 H    1309 MOH     0.0372 ****
8159 HC3   -19.564207   15.925113   13.905113 H    1309 MOH     0.0372 ****
8160 O1    -19.966043   16.291311   15.878648 O    1309 MOH    -0.6497 ****
8161 HO1   -19.683141   17.171495   15.618433 H    1309 MOH     0.4215 ****
8162 HC1   -20.307834   18.872257   17.089215 H    1310 MOH     0.0372 ****
8163 C1    -20.219499   19.858177   17.545299 C    1310 MOH     0.1166 ****
8164 HC2   -20.820521   19.890020   18.453224 H    1310 MOH     0.0372 ****
8165 HC3   -20.571683   20.593432   16.821929 H    1310 MOH     0.0372 ****
8166 O1    -18.879469   20.061893   17.852890 O    1310 MOH    -0.6497 ****
8167 HO1   -18.394495   19.595265   17.169118 H    1310 MOH     0.4215 ****
8168 HC1   -18.344266   14.034923   17.903095 H    1311 MOH     0.0372 ****
8169 C1    -17.268085   14.043088   17.733389 C    1311 MOH     0.1166 ****
8170 HC2   -16.847774   14.903267   18.253113 H    1311 MOH     0.0372 ****
8171 HC3   -17.064280   14.103509   16.664244 H    1311 MOH     0.0372 ****
8172 O1    -16.674569   12.898360   18.234021 O    1311 MOH    -0.6497 ****
8173 HO1   -17.136449   12.637081   19.033052 H    1311 MOH     0.4215 ****
8174 HC1   -17.034835   24.960872    9.086180 H    1312 MOH     0.0372 ****
8175 C1    -17.020401   25.668366    8.256744 C    1312 MOH     0.1166 ****
8176 HC2   -18.011135   26.099477    8.115323 H    1312 MOH     0.0372 ****
8177 HC3   -16.681497   25.175202    7.345991 H    1312 MOH     0.0372 ****
8178 O1    -16.143406   26.720014    8.563628 O    1312 MOH    -0.6497 ****
8179 HO1   -15.947107   26.726954    9.503373 H    1312 MOH     0.4215 ****
8180 HC1   -10.903376   21.126196   22.415850 H    1313 MOH     0.0372 ****
8181 C1    -10.828320   22.168046   22.106138 C    1313 MOH     0.1166 ****
8182 HC2    -9.789667   22.392582   21.862893 H    1313 MOH     0.0372 ****
8183 HC3   -11.190319   22.769395   22.941231 H    1313 MOH     0.0372 ****
8184 O1    -11.716285   22.325629   21.029921 O    1313 MOH    -0.6497 ****
8185 HO1   -11.349090   21.805113   20.312208 H    1313 MOH     0.4215 ****
8186 HC1   -21.178478   17.213544   22.964565 H    1314 MOH     0.0372 ****
8187 C1    -20.186013   17.234365   22.514138 C    1314 MOH     0.1166 ****
8188 HC2   -19.662934   18.145575   22.804052 H    1314 MOH     0.0372 ****
8189 HC3   -20.246058   17.178843   21.428022 H    1314 MOH     0.0372 ****
8190 O1    -19.451046   16.169653   22.962444 O    1314 MOH    -0.6497 ****
8191 HO1   -19.897915   15.373569   22.666873 H    1314 MOH     0.4215 ****
8192 HC1   -25.831921   21.504642    6.870108 H    1315 MOH     0.0372 ****
8193 C1    -25.043838   21.538935    6.117746 C    1315 MOH     0.1166 ****
8194 HC2   -25.464149   21.930445    5.190729 H    1315 MOH     0.0372 ****
8195 HC3   -24.646044   20.541176    5.931070 H    1315 MOH     0.0372 ****
8196 O1    -24.037517   22.439122    6.467764 O    1315 MOH    -0.6497 ****
8197 HO1   -23.210174   21.974128    6.324221 H    1315 MOH     0.4215 ****
8198 HC1   -22.628205   20.884105    4.151989 H    1316 MOH     0.0372 ****
8199 C1    -22.198079   20.314190    4.976476 C    1316 MOH     0.1166 ****
8200 HC2   -21.422697   19.670382    4.561404 H    1316 MOH     0.0372 ****
8201 HC3   -22.943438   19.665483    5.436802 H    1316 MOH     0.0372 ****
8202 O1    -21.628811   21.208662    5.916221 O    1316 MOH    -0.6497 ****
8203 HO1   -21.214274   20.669366    6.592922 H    1316 MOH     0.4215 ****
8204 HC1   -11.565019   23.922288   11.097192 H    1317 MOH     0.0372 ****
8205 C1    -11.604279   22.852678   10.892131 C    1317 MOH     0.1166 ****
8206 HC2   -12.382547   22.424425   11.523578 H    1317 MOH     0.0372 ****
8207 HC3   -10.635485   22.416261   11.136083 H    1317 MOH     0.0372 ****
8208 O1    -11.892954   22.560780    9.523880 O    1317 MOH    -0.6497 ****
8209 HO1   -11.463405   21.746325    9.251643 H    1317 MOH     0.4215 ****
8210 HC1    -7.403478   22.602422    8.850714 H    1318 MOH     0.0372 ****
8211 C1     -7.925980   23.531595    9.078402 C    1318 MOH     0.1166 ****
8212 HC2    -8.958282   23.318489    9.357002 H    1318 MOH     0.0372 ****
8213 HC3    -7.885566   24.177852    8.202297 H    1318 MOH     0.0372 ****
8214 O1     -7.238356   24.094977   10.144719 O    1318 MOH    -0.6497 ****
8215 HO1    -6.775898   23.379726   10.587368 H    1318 MOH     0.4215 ****
8216 HC1   -14.003169   17.816527   18.490701 H    1319 MOH     0.0372 ****
8217 C1    -13.752022   17.296011   19.414889 C    1319 MOH     0.1166 ****
8218 HC2   -14.418861   16.442363   19.535804 H    1319 MOH     0.0372 ****
8219 HC3   -13.874997   17.965946   20.265539 H    1319 MOH     0.0372 ****
8220 O1    -12.411992   16.865309   19.318016 O    1319 MOH    -0.6497 ****
8221 HO1   -12.222044   16.309683   20.076741 H    1319 MOH     0.4215 ****
8222 HC1   -12.530348   24.746950    8.469583 H    1320 MOH     0.0372 ****
8223 C1    -13.467388   25.002922    7.976730 C    1320 MOH     0.1166 ****
8224 HC2   -14.305701   24.671016    8.589791 H    1320 MOH     0.0372 ****
8225 HC3   -13.485863   24.504042    7.007994 H    1320 MOH     0.0372 ****
8226 O1    -13.497987   26.386475    7.759648 O    1320 MOH    -0.6497 ****
8227 HO1   -14.414242   26.627750    7.607620 H    1320 MOH     0.4215 ****
8228 HC1   -15.859927   20.036989    6.761920 H    1321 MOH     0.0372 ****
8229 C1    -15.554509   19.056785    6.394932 C    1321 MOH     0.1166 ****
8230 HC2   -14.605345   19.136394    5.865309 H    1321 MOH     0.0372 ****
8231 HC3   -16.321230   18.664459    5.728130 H    1321 MOH     0.0372 ****
8232 O1    -15.400934   18.136185    7.469027 O    1321 MOH    -0.6497 ****
8233 HO1   -14.551652   17.702217    7.360840 H    1321 MOH     0.4215 ****
8234 HC1   -10.018875   17.388683   13.434887 H    1322 MOH     0.0372 ****
8235 C1     -9.147653   17.892053   13.015573 C    1322 MOH     0.1166 ****
8236 HC2    -9.445566   18.841230   12.572217 H    1322 MOH     0.0372 ****
8237 HC3    -8.708867   17.280497   12.226442 H    1322 MOH     0.0372 ****
8238 O1     -8.178860   18.167212   14.001280 O    1322 MOH    -0.6497 ****
8239 HO1    -7.748734   17.329079   14.184420 H    1322 MOH     0.4215 ****
8240 HC1   -18.574051   23.712449    1.687015 H    1323 MOH     0.0372 ****
8241 C1    -17.650291   23.900651    1.139007 C    1323 MOH     0.1166 ****
8242 HC2   -17.059661   22.985767    1.176484 H    1323 MOH     0.0372 ****
8243 HC3   -17.127789   24.724088    1.626204 H    1323 MOH     0.0372 ****
8244 O1    -17.923377   24.252969   -0.215102 O    1323 MOH    -0.6497 ****
8245 HO1   -17.141645   24.675098   -0.578555 H    1323 MOH     0.4215 ****
8246 HC1   -20.987375   18.974319   12.597673 H    1324 MOH     0.0372 ****
8247 C1    -20.130587   18.716306   11.974004 C    1324 MOH     0.1166 ****
8248 HC2   -19.944681   19.509533   11.250634 H    1324 MOH     0.0372 ****
8249 HC3   -20.376539   17.812445   11.416804 H    1324 MOH     0.0372 ****
8250 O1    -18.967227   18.525654   12.775156 O    1324 MOH    -0.6497 ****
8251 HO1   -18.270942   18.177827   12.213714 H    1324 MOH     0.4215 ****
8252 HC1   -14.932703   18.634248   11.780964 H    1325 MOH     0.0372 ****
8253 C1    -15.430956   17.858577   11.201137 C    1325 MOH     0.1166 ****
8254 HC2   -14.704072   17.113115   10.878696 H    1325 MOH     0.0372 ****
8255 HC3   -15.893414   18.332553   10.334931 H    1325 MOH     0.0372 ****
8256 O1    -16.406101   17.227833   11.998046 O    1325 MOH    -0.6497 ****
8257 HO1   -15.934406   16.858777   12.747579 H    1325 MOH     0.4215 ****
8258 HC1   -11.592154   24.686121   18.967998 H    1326 MOH     0.0372 ****
8259 C1    -12.214538   25.580593   18.958805 C    1326 MOH     0.1166 ****
8260 HC2   -11.770556   26.367696   19.568331 H    1326 MOH     0.0372 ****
8261 HC3   -13.186218   25.302576   19.368220 H    1326 MOH     0.0372 ****
8262 O1    -12.394094   26.033340   17.637223 O    1326 MOH    -0.6497 ****
8263 HO1   -11.536729   26.308908   17.304175 H    1326 MOH     0.4215 ****
8264 HC1   -15.963273   24.865750   16.808494 H    1327 MOH     0.0372 ****
8265 C1    -15.509476   25.745117   17.265285 C    1327 MOH     0.1166 ****
8266 HC2   -14.672318   26.061918   16.643031 H    1327 MOH     0.0372 ****
8267 HC3   -15.205790   25.496086   18.282104 H    1327 MOH     0.0372 ****
8268 O1    -16.459794   26.742876   17.229929 O    1327 MOH    -0.6497 ****
8269 HO1   -16.787729   26.798398   16.329075 H    1327 MOH     0.4215 ****
8270 HC1   -12.340978   20.925338   18.651214 H    1328 MOH     0.0372 ****
8271 C1    -11.518254   20.234582   18.465952 C    1328 MOH     0.1166 ****
8272 HC2   -11.242857   20.355831   17.418727 H    1328 MOH     0.0372 ****
8273 HC3   -11.826559   19.194773   18.572725 H    1328 MOH     0.0372 ****
8274 O1    -10.428216   20.545259   19.350543 O    1328 MOH    -0.6497 ****
8275 HO1    -9.817380   19.804696   19.363270 H    1328 MOH     0.4215 ****
8276 HC1   -16.593740   22.266842    9.455997 H    1329 MOH     0.0372 ****
8277 C1    -15.666515   22.090070    9.999762 C    1329 MOH     0.1166 ****
8278 HC2   -15.732333   21.165388   10.573226 H    1329 MOH     0.0372 ****
8279 HC3   -15.443081   22.926571   10.662321 H    1329 MOH     0.0372 ****
8280 O1    -14.663080   21.988008    9.069210 O    1329 MOH    -0.6497 ****
8281 HO1   -13.853058   22.328895    9.455997 H    1329 MOH     0.4215 ****
8282 HC1   -18.690676   22.410953    4.183102 H    1330 MOH     0.0372 ****
8283 C1    -18.410661   21.502601    4.716968 C    1330 MOH     0.1166 ****
8284 HC2   -17.602371   21.006987    4.179566 H    1330 MOH     0.0372 ****
8285 HC3   -19.241468   20.796739    4.740302 H    1330 MOH     0.0372 ****
8286 O1    -17.973029   21.763880    6.036429 O    1330 MOH    -0.6497 ****
8287 HO1   -18.320594   21.059243    6.587972 H    1330 MOH     0.4215 ****
8288 HC1    -7.506824   21.883088   17.586311 H    1331 MOH     0.0372 ****
8289 C1     -8.338208   22.566496   17.416605 C    1331 MOH     0.1166 ****
8290 HC2    -9.260237   22.106400   17.773694 H    1331 MOH     0.0372 ****
8291 HC3    -8.408645   22.754698   16.345339 H    1331 MOH     0.0372 ****
8292 O1     -8.010273   23.787158   18.068558 O    1331 MOH    -0.6497 ****
8293 HO1    -7.397127   23.589974   18.780614 H    1331 MOH     0.4215 ****
8294 HC1    -7.747002   24.709391   13.608835 H    1332 MOH     0.0372 ****
8295 C1     -8.756787   24.388508   13.352863 C    1332 MOH     0.1166 ****
8296 HC2    -9.454226   24.819210   14.071990 H    1332 MOH     0.0372 ****
8297 HC3    -8.838194   23.302159   13.387511 H    1332 MOH     0.0372 ****
8298 O1     -9.111858   24.847787   12.080778 O    1332 MOH    -0.6497 ****
8299 HO1    -8.513145   24.440356   11.451453 H    1332 MOH     0.4215 ****
8300 HC1   -14.256626   11.923463   16.023605 H    1333 MOH     0.0372 ****
8301 C1    -13.675234   12.680764   16.550400 C    1333 MOH     0.1166 ****
8302 HC2   -12.621570   12.436631   16.413221 H    1333 MOH     0.0372 ****
8303 HC3   -13.905020   12.691378   17.615302 H    1333 MOH     0.0372 ****
8304 O1    -13.803406   13.941026   15.998149 O    1333 MOH    -0.6497 ****
8305 HO1   -13.004930   14.417452   16.239273 H    1333 MOH     0.4215 ****
8306 HC1   -19.101172   23.280522   21.105581 H    1334 MOH     0.0372 ****
8307 C1    -18.755917   22.437489   20.508076 C    1334 MOH     0.1166 ****
8308 HC2   -18.015753   21.905542   21.106996 H    1334 MOH     0.0372 ****
8309 HC3   -18.314244   22.823284   19.589545 H    1334 MOH     0.0372 ****
8310 O1    -19.808426   21.519747   20.174322 O    1334 MOH    -0.6497 ****
8311 HO1   -19.529566   21.006579   19.412768 H    1334 MOH     0.4215 ****
8312 HC1   -14.036078   11.600947   11.360943 H    1335 MOH     0.0372 ****
8313 C1    -14.068987   12.686071   11.261948 C    1335 MOH     0.1166 ****
8314 HC2   -13.623850   13.155148   12.139468 H    1335 MOH     0.0372 ****
8315 HC3   -15.106485   13.011853   11.186995 H    1335 MOH     0.0372 ****
8316 O1    -13.383095   13.063292   10.096636 O    1335 MOH    -0.6497 ****
8317 HO1   -13.281481   14.016552   10.136941 H    1335 MOH     0.4215 ****
8318 HC1    -5.602723   20.417885   12.543933 H    1336 MOH     0.0372 ****
8319 C1     -6.508585   20.742443   12.032694 C    1336 MOH     0.1166 ****
8320 HC2    -7.394240   20.349708   12.531912 H    1336 MOH     0.0372 ****
8321 HC3    -6.501080   20.394207   10.999611 H    1336 MOH     0.0372 ****
8322 O1     -6.601539   22.134569   12.046837 O    1336 MOH    -0.6497 ****
8323 HO1    -6.331339   22.419935   12.922942 H    1336 MOH     0.4215 ****
8324 HC1   -13.068439   24.981693   14.528781 H    1337 MOH     0.0372 ****
8325 C1    -12.405063   24.159889   14.798189 C    1337 MOH     0.1166 ****
8326 HC2   -11.388927   24.546092   14.875971 H    1337 MOH     0.0372 ****
8327 HC3   -12.418920   23.377277   14.039463 H    1337 MOH     0.0372 ****
8328 O1    -12.783228   23.732861   16.085123 O    1337 MOH    -0.6497 ****
8329 HO1   -12.729534   24.502001   16.656466 H    1337 MOH     0.4215 ****
8330 HC1   -18.582134   23.944742    9.651159 H    1338 MOH     0.0372 ****
8331 C1    -19.212600   23.631207   10.482716 C    1338 MOH     0.1166 ****
8332 HC2   -20.188900   23.318489   10.112192 H    1338 MOH     0.0372 ****
8333 HC3   -19.382919   24.458318   11.172852 H    1338 MOH     0.0372 ****
8334 O1    -18.610424   22.577110   11.178509 O    1338 MOH    -0.6497 ****
8335 HO1   -19.261098   22.222751   11.788035 H    1338 MOH     0.4215 ****
8336 HC1   -26.581899   18.609345   12.847988 H    1339 MOH     0.0372 ****
8337 C1    -25.938154   19.393590   12.451302 C    1339 MOH     0.1166 ****
8338 HC2   -25.904090   20.194982   13.188814 H    1339 MOH     0.0372 ****
8339 HC3   -26.337103   19.833682   11.536305 H    1339 MOH     0.0372 ****
8340 O1    -24.626414   18.929004   12.220785 O    1339 MOH    -0.6497 ****
8341 HO1   -24.184164   19.716106   11.895516 H    1339 MOH     0.4215 ****
8342 HC1   -20.089596   25.645096    7.690352 H    1340 MOH     0.0372 ****
8343 C1    -20.222963   24.622434    7.337505 C    1340 MOH     0.1166 ****
8344 HC2   -21.221779   24.544867    6.908999 H    1340 MOH     0.0372 ****
8345 HC3   -20.149640   23.905550    8.154921 H    1340 MOH     0.0372 ****
8346 O1    -19.302667   24.345234    6.325635 O    1340 MOH    -0.6497 ****
8347 HO1   -19.186620   23.397281    6.233712 H    1340 MOH     0.4215 ****
8348 HC1   -17.902593   16.370512    6.648076 H    1341 MOH     0.0372 ****
8349 C1    -18.639292   16.716298    7.372861 C    1341 MOH     0.1166 ****
8350 HC2   -18.910069   15.908374    8.053805 H    1341 MOH     0.0372 ****
8351 HC3   -19.548041   17.015952    6.852430 H    1341 MOH     0.0372 ****
8352 O1    -18.199351   17.797748    8.166942 O    1341 MOH    -0.6497 ****
8353 HO1   -17.251919   17.729162    8.302706 H    1341 MOH     0.4215 ****
8354 HC1   -19.065376   14.119839   12.410289 H    1342 MOH     0.0372 ****
8355 C1    -18.030187   14.423984   12.254019 C    1342 MOH     0.1166 ****
8356 HC2   -17.441290   13.521347   12.086435 H    1342 MOH     0.0372 ****
8357 HC3   -17.657219   14.980834   13.112446 H    1342 MOH     0.0372 ****
8358 O1    -18.032497   15.155565   11.077393 O    1342 MOH    -0.6497 ****
8359 HO1   -17.395102   15.864692   11.186995 H    1342 MOH     0.4215 ****
8360 HC1    -6.002826   19.311941   16.981028 H    1343 MOH     0.0372 ****
8361 C1     -5.618888   19.908800   16.153713 C    1343 MOH     0.1166 ****
8362 HC2    -4.931264   19.291528   15.575299 H    1343 MOH     0.0372 ****
8363 HC3    -5.117748   20.770612   16.595655 H    1343 MOH     0.0372 ****
8364 O1     -6.684100   20.348483   15.366703 O    1343 MOH    -0.6497 ****
8365 HO1    -7.213530   19.592407   15.105073 H    1343 MOH     0.4215 ****
8366 HC1    -6.110791   24.768587   15.716721 H    1344 MOH     0.0372 ****
8367 C1     -5.470509   23.893303   15.825615 C    1344 MOH     0.1166 ****
8368 HC2    -5.620621   23.492403   16.828293 H    1344 MOH     0.0372 ****
8369 HC3    -4.431856   24.206021   15.719549 H    1344 MOH     0.0372 ****
8370 O1     -5.849829   22.951474   14.822231 O    1344 MOH    -0.6497 ****
8371 HO1    -5.920843   22.078231   15.214675 H    1344 MOH     0.4215 ****
8372 HC1    -7.975055   26.982109   20.137552 H    1345 MOH     0.0372 ****
8373 C1     -7.116535   27.343817   19.571867 C    1345 MOH     0.1166 ****
8374 HC2    -7.464677   27.863109   18.679498 H    1345 MOH     0.0372 ****
8375 HC3    -6.487223   26.503234   19.278418 H    1345 MOH     0.0372 ****
8376 O1     -6.367134   28.233390   20.367362 O    1345 MOH    -0.6497 ****
8377 HO1    -6.199703   27.814936   21.215183 H    1345 MOH     0.4215 ****
8378 HC1    -7.176002   28.303201   10.205530 H    1346 MOH     0.0372 ****
8379 C1     -7.622871   28.717165    9.301848 C    1346 MOH     0.1166 ****
8380 HC2    -8.650555   29.036007    9.473675 H    1346 MOH     0.0372 ****
8381 HC3    -7.592272   27.944759    8.532516 H    1346 MOH     0.0372 ****
8382 O1     -6.812271   29.781468    8.913646 O    1346 MOH    -0.6497 ****
8383 HO1    -6.630406   30.327704    9.681564 H    1346 MOH     0.4215 ****
8384 HC1   -13.950053   26.050895    4.799699 H    1347 MOH     0.0372 ****
8385 C1    -14.874390   26.566104    4.538070 C    1347 MOH     0.1166 ****
8386 HC2   -15.587418   26.519156    5.361849 H    1347 MOH     0.0372 ****
8387 HC3   -15.310290   26.119889    3.644994 H    1347 MOH     0.0372 ****
8388 O1    -14.636522   27.915365    4.258762 O    1347 MOH    -0.6497 ****
8389 HO1   -14.131918   27.945575    3.442761 H    1347 MOH     0.4215 ****
8390 HC1   -23.690529   15.831216    5.339222 H    1348 MOH     0.0372 ****
8391 C1    -23.176687   16.140260    6.249268 C    1348 MOH     0.1166 ****
8392 HC2   -22.093578   16.114132    6.133302 H    1348 MOH     0.0372 ****
8393 HC3   -23.479796   15.500943    7.079411 H    1348 MOH     0.0372 ****
8394 O1    -23.616051   17.397664    6.532111 O    1348 MOH    -0.6497 ****
8395 HO1   -23.948027   17.759780    5.706917 H    1348 MOH     0.4215 ****
8396 HC1   -21.838967   19.040047    9.072745 H    1349 MOH     0.0372 ****
8397 C1    -22.721158   19.623434    9.333668 C    1349 MOH     0.1166 ****
8398 HC2   -22.416894   20.622009    9.644795 H    1349 MOH     0.0372 ****
8399 HC3   -23.256362   19.133536   10.146841 H    1349 MOH     0.0372 ****
8400 O1    -23.542150   19.678547    8.166234 O    1349 MOH    -0.6497 ****
8401 HO1   -23.632794   18.789791    7.813388 H    1349 MOH     0.4215 ****
8402 HC1   -14.302236   10.047562   14.523832 H    1350 MOH     0.0372 ****
8403 C1    -13.464501   10.275773   13.864101 C    1350 MOH     0.1166 ****
8404 HC2   -13.107121   11.277206   14.099568 H    1350 MOH     0.0372 ****
8405 HC3   -13.814953   10.230866   12.833139 H    1350 MOH     0.0372 ****
8406 O1    -12.383702    9.333944   14.068455 O    1350 MOH    -0.6497 ****
8407 HO1   -11.550585    9.722188   13.790562 H    1350 MOH     0.4215 ****
8408 HC1   -20.108648   20.902884   14.139165 H    1351 MOH     0.0372 ****
8409 C1    -20.420417   21.946367   14.103810 C    1351 MOH     0.1166 ****
8410 HC2   -19.614436   22.603646   14.431908 H    1351 MOH     0.0372 ****
8411 HC3   -21.263349   22.069658   14.782633 H    1351 MOH     0.0372 ****
8412 O1    -20.873637   22.292561   12.809805 O    1351 MOH    -0.6497 ****
8413 HO1   -21.084947   23.228266   12.839503 H    1351 MOH     0.4215 ****
8414 HC1   -24.383350   20.073732   14.955874 H    1352 MOH     0.0372 ****
8415 C1    -23.612010   19.780610   15.668637 C    1352 MOH     0.1166 ****
8416 HC2   -22.714230   19.524230   15.105780 H    1352 MOH     0.0372 ****
8417 HC3   -23.942254   18.892261   16.207453 H    1352 MOH     0.0372 ****
8418 O1    -23.351625   20.857977   16.577270 O    1352 MOH    -0.6497 ****
8419 HO1   -24.017887   20.833074   17.268113 H    1352 MOH     0.4215 ****
8420 HC1   -15.077618   24.719597   12.055322 H    1353 MOH     0.0372 ****
8421 C1    -14.295886   25.392799   11.703890 C    1353 MOH     0.1166 ****
8422 HC2   -13.736433   24.958014   10.875868 H    1353 MOH     0.0372 ****
8423 HC3   -13.610571   25.597739   12.525548 H    1353 MOH     0.0372 ****
8424 O1    -14.869772   26.592232   11.258412 O    1353 MOH    -0.6497 ****
8425 HO1   -14.674627   27.235632   11.944306 H    1353 MOH     0.4215 ****
8426 HC1     1.224906   31.948695   10.595853 H    1354 MOH     0.0372 ****
8427 C1      0.544788   31.380005   11.230128 C    1354 MOH     0.1166 ****
8428 HC2     0.899281   31.417156   12.260383 H    1354 MOH     0.0372 ****
8429 HC3     0.489939   30.343463   10.898495 H    1354 MOH     0.0372 ****
8430 O1     -0.687855   32.002992   11.148104 O    1354 MOH    -0.6497 ****
8431 HO1    -0.585664   32.895831   11.483980 H    1354 MOH     0.4215 ****
8432 HC1     1.554573   32.323059   15.824908 H    1355 MOH     0.0372 ****
8433 C1      1.388296   32.410015   16.899003 C    1355 MOH     0.1166 ****
8434 HC2     1.460465   33.466154   17.158512 H    1355 MOH     0.0372 ****
8435 HC3     2.175225   31.856022   17.411656 H    1355 MOH     0.0372 ****
8436 O1      0.062700   31.891132   17.133056 O    1355 MOH    -0.6497 ****
8437 HO1    -0.248492   32.239776   17.971684 H    1355 MOH     0.4215 ****
8438 HC1    -2.658352   28.325899   16.023605 H    1356 MOH     0.0372 ****
8439 C1     -2.076960   29.083200   16.550400 C    1356 MOH     0.1166 ****
8440 HC2    -1.023296   28.839068   16.413221 H    1356 MOH     0.0372 ****
8441 HC3    -2.306745   29.093815   17.615302 H    1356 MOH     0.0372 ****
8442 O1     -2.205132   30.343463   15.998149 O    1356 MOH    -0.6497 ****
8443 HO1    -1.406656   30.819888   16.239273 H    1356 MOH     0.4215 ****
8444 HC1    -2.437804   28.003383   11.360943 H    1357 MOH     0.0372 ****
8445 C1     -2.470713   29.088507   11.261948 C    1357 MOH     0.1166 ****
8446 HC2    -2.025576   29.557585   12.139468 H    1357 MOH     0.0372 ****
8447 HC3    -3.508211   29.414289   11.186995 H    1357 MOH     0.0372 ****
8448 O1     -1.784821   29.465729   10.096636 O    1357 MOH    -0.6497 ****
8449 HO1    -1.683207   30.418988   10.136941 H    1357 MOH     0.4215 ****
8450 HC1    -2.703962   26.449999   14.523832 H    1358 MOH     0.0372 ****
8451 C1     -1.866227   26.678209   13.864101 C    1358 MOH     0.1166 ****
8452 HC2    -1.508847   27.679642   14.099568 H    1358 MOH     0.0372 ****
8453 HC3    -2.216679   26.633302   12.833139 H    1358 MOH     0.0372 ****
8454 O1     -0.785427   25.736381   14.068455 O    1358 MOH    -0.6497 ****
8455 HO1     0.047689   26.124625   13.790562 H    1358 MOH     0.4215 ****
8456 HC1   -26.766536  -19.249968    6.719636 H    1359 MOH     0.0372 ****
8457 C1    -26.705337  -18.470214    7.477654 C    1359 MOH     0.1166 ****
8458 HC2   -26.345070  -18.916021    8.405378 H    1359 MOH     0.0372 ****
8459 HC3   -27.698379  -18.044819    7.623318 H    1359 MOH     0.0372 ****
8460 O1    -25.834115  -17.447552    7.049854 O    1359 MOH    -0.6497 ****
8461 HO1   -24.947305  -17.807627    6.983386 H    1359 MOH     0.4215 ****
8462 HC1   -25.620495  -17.806811   -9.670392 H    1360 MOH     0.0372 ****
8463 C1    -26.412620  -18.339166   -9.144305 C    1360 MOH     0.1166 ****
8464 HC2   -26.385485  -18.081562   -8.085766 H    1360 MOH     0.0372 ****
8465 HC3   -26.246920  -19.406736   -9.286433 H    1360 MOH     0.0372 ****
8466 O1    -27.641221  -17.923570   -9.700091 O    1360 MOH    -0.6497 ****
8467 HO1   -28.335774  -18.282420   -9.142184 H    1360 MOH     0.4215 ****
8468 HC1   -24.924211   -9.915780  -10.789743 H    1361 MOH     0.0372 ****
8469 C1    -24.386698   -9.573259  -11.674333 C    1361 MOH     0.1166 ****
8470 HC2   -24.714633  -10.147256  -12.541246 H    1361 MOH     0.0372 ****
8471 HC3   -23.327260   -9.757787  -11.496142 H    1361 MOH     0.0372 ****
8472 O1    -24.647083   -8.192563  -11.943034 O    1361 MOH    -0.6497 ****
8473 HO1   -24.387853   -7.987623  -12.843888 H    1361 MOH     0.4215 ****
8474 HC1   -22.358466  -17.329568   -9.225622 H    1362 MOH     0.0372 ****
8475 C1    -22.159858  -16.368960   -8.751154 C    1362 MOH     0.1166 ****
8476 HC2   -21.095224  -16.151772   -8.834592 H    1362 MOH     0.0372 ****
8477 HC3   -22.389066  -16.404070   -7.686251 H    1362 MOH     0.0372 ****
8478 O1    -22.953137  -15.373243   -9.402399 O    1362 MOH    -0.6497 ****
8479 HO1   -22.905794  -14.597163   -8.838835 H    1362 MOH     0.4215 ****
8480 HC1   -23.517208  -22.796830   -4.213649 H    1363 MOH     0.0372 ****
8481 C1    -23.469866  -22.073414   -3.399062 C    1363 MOH     0.1166 ****
8482 HC2   -24.263145  -21.345915   -3.570182 H    1363 MOH     0.0372 ****
8483 HC3   -22.509155  -21.559837   -3.445731 H    1363 MOH     0.0372 ****
8484 O1    -23.655195  -22.715180   -2.105057 O    1363 MOH    -0.6497 ****
8485 HO1   -23.846876  -22.039529   -1.449569 H    1363 MOH     0.4215 ****
8486 HC1   -28.851925   -9.458133   -0.151321 H    1364 MOH     0.0372 ****
8487 C1    -29.517610   -8.599179   -0.066468 C    1364 MOH     0.1166 ****
8488 HC2   -30.559727   -8.919245   -0.073539 H    1364 MOH     0.0372 ****
8489 HC3   -29.382510   -7.974559   -0.948938 H    1364 MOH     0.0372 ****
8490 O1    -29.291866   -7.802278    1.137027 O    1364 MOH    -0.6497 ****
8491 HO1   -29.364612   -8.369335    1.907067 H    1364 MOH     0.4215 ****
8492 HC1   -28.777447  -20.112189    8.798530 H    1365 MOH     0.0372 ****
8493 C1    -28.477802  -21.159346    8.783680 C    1365 MOH     0.1166 ****
8494 HC2   -27.843872  -21.347956    7.916767 H    1365 MOH     0.0372 ****
8495 HC3   -29.345560  -21.813359    8.704484 H    1365 MOH     0.0372 ****
8496 O1    -27.772857  -21.470431    9.977277 O    1365 MOH    -0.6497 ****
8497 HO1   -27.338690  -22.318771    9.858483 H    1365 MOH     0.4215 ****
8498 HC1   -21.971642  -25.459833   -3.609073 H    1366 MOH     0.0372 ****
8499 C1    -22.651760  -26.028523   -2.974798 C    1366 MOH     0.1166 ****
8500 HC2   -22.297267  -25.991372   -1.944544 H    1366 MOH     0.0372 ****
8501 HC3   -22.706609  -27.065065   -3.306431 H    1366 MOH     0.0372 ****
8502 O1    -23.884403  -25.405536   -3.056823 O    1366 MOH    -0.6497 ****
8503 HO1   -23.782212  -24.512697   -2.720947 H    1366 MOH     0.4215 ****
8504 HC1   -28.103679  -18.996446    1.374615 H    1367 MOH     0.0372 ****
8505 C1    -28.243975  -19.150764    0.305470 C    1367 MOH     0.1166 ****
8506 HC2   -28.440274  -18.196280   -0.183848 H    1367 MOH     0.0372 ****
8507 HC3   -29.078246  -19.829681    0.129400 H    1367 MOH     0.0372 ****
8508 O1    -27.068490  -19.705165   -0.246073 O    1367 MOH    -0.6497 ****
8509 HO1   -26.421858  -19.806003    0.456084 H    1367 MOH     0.4215 ****
8510 HC1   -25.340481  -10.960079    2.665085 H    1368 MOH     0.0372 ****
8511 C1    -24.857816  -11.925994    2.518007 C    1368 MOH     0.1166 ****
8512 HC2   -25.630888  -12.680029    2.370222 H    1368 MOH     0.0372 ****
8513 HC3   -24.293167  -12.168493    3.417447 H    1368 MOH     0.0372 ****
8514 O1    -23.949644  -11.898233    1.395122 O    1368 MOH    -0.6497 ****
8515 HO1   -23.238348  -11.294026    1.624224 H    1368 MOH     0.4215 ****
8516 HC1   -21.641975  -25.085469    1.619982 H    1369 MOH     0.0372 ****
8517 C1    -21.808252  -24.998513    2.694077 C    1369 MOH     0.1166 ****
8518 HC2   -21.736083  -23.942374    2.953585 H    1369 MOH     0.0372 ****
8519 HC3   -21.021323  -25.552505    3.206729 H    1369 MOH     0.0372 ****
8520 O1    -23.133848  -25.517396    2.928129 O    1369 MOH    -0.6497 ****
8521 HO1   -23.445040  -25.168752    3.766758 H    1369 MOH     0.4215 ****
8522 HC1   -22.775891   -7.688377   10.801056 H    1370 MOH     0.0372 ****
8523 C1    -23.487186   -8.514263   10.790449 C    1370 MOH     0.1166 ****
8524 HC2   -23.125188   -9.245436   10.067079 H    1370 MOH     0.0372 ****
8525 HC3   -24.476187   -8.141941   10.520335 H    1370 MOH     0.0372 ****
8526 O1    -23.550695   -9.087852   12.075262 O    1370 MOH    -0.6497 ****
8527 HO1   -23.826668   -8.404036   12.689738 H    1370 MOH     0.4215 ****
8528 HC1   -26.846210   -6.158670   -6.206984 H    1371 MOH     0.0372 ****
8529 C1    -27.427024   -5.777367   -5.366941 C    1371 MOH     0.1166 ****
8530 HC2   -27.129689   -4.770218   -5.074906 H    1371 MOH     0.0372 ****
8531 HC3   -27.219178   -6.432605   -4.520534 H    1371 MOH     0.0372 ****
8532 O1    -28.806314   -5.821049   -5.651905 O    1371 MOH    -0.6497 ****
8533 HO1   -29.211614   -6.495884   -5.102483 H    1371 MOH     0.4215 ****
8534 HC1   -22.048429  -18.947456    0.438406 H    1372 MOH     0.0372 ****
8535 C1    -22.065173  -19.954605    0.020506 C    1372 MOH     0.1166 ****
8536 HC2   -21.563455  -20.613109    0.728320 H    1372 MOH     0.0372 ****
8537 HC3   -21.513803  -19.983182   -0.919946 H    1372 MOH     0.0372 ****
8538 O1    -23.408089  -20.390206   -0.128694 O    1372 MOH    -0.6497 ****
8539 HO1   -23.899992  -20.129335    0.654074 H    1372 MOH     0.4215 ****
8540 HC1   -27.913731  -15.156463   -0.429921 H    1373 MOH     0.0372 ****
8541 C1    -28.977210  -14.955605   -0.561443 C    1373 MOH     0.1166 ****
8542 HC2   -29.559179  -15.876613   -0.534573 H    1373 MOH     0.0372 ****
8543 HC3   -29.142332  -14.484894   -1.530886 H    1373 MOH     0.0372 ****
8544 O1    -29.427543  -14.065215    0.417900 O    1373 MOH    -0.6497 ****
8545 HO1   -29.317269  -13.170743    0.087681 H    1373 MOH     0.4215 ****
8546 HC1   -24.200791  -12.228914   -3.226528 H    1374 MOH     0.0372 ****
8547 C1    -24.604936  -11.883128   -4.177587 C    1374 MOH     0.1166 ****
8548 HC2   -25.537934  -12.406502   -4.389719 H    1374 MOH     0.0372 ****
8549 HC3   -23.883826  -12.028056   -4.981567 H    1374 MOH     0.0372 ****
8550 O1    -24.851465  -10.517129   -4.023438 O    1374 MOH    -0.6497 ****
8551 HO1   -24.027009  -10.061524   -3.835347 H    1374 MOH     0.4215 ****
8552 HC1   -27.248623  -19.909698    3.396234 H    1375 MOH     0.0372 ****
8553 C1    -26.494604  -20.663324    3.168545 C    1375 MOH     0.1166 ****
8554 HC2   -26.980733  -21.552897    2.769030 H    1375 MOH     0.0372 ****
8555 HC3   -26.005588  -20.952772    4.098391 H    1375 MOH     0.0372 ****
8556 O1    -25.560451  -20.121170    2.223851 O    1375 MOH    -0.6497 ****
8557 HO1   -25.343945  -19.223432    2.483359 H    1375 MOH     0.4215 ****
8558 HC1   -29.003191  -11.556938   -5.690088 H    1376 MOH     0.0372 ****
8559 C1    -29.240482  -11.843528   -4.664784 C    1376 MOH     0.1166 ****
8560 HC2   -28.478379  -12.506115   -4.255369 H    1376 MOH     0.0372 ****
8561 HC3   -30.193687  -12.372209   -4.683876 H    1376 MOH     0.0372 ****
8562 O1    -29.342095  -10.717171   -3.826862 O    1376 MOH    -0.6497 ****
8563 HO1   -28.568446  -10.160728   -3.946363 H    1376 MOH     0.4215 ****
8564 HC1   -21.961249  -10.341582   -4.893179 H    1377 MOH     0.0372 ****
8565 C1    -21.540939   -9.458133   -4.412346 C    1377 MOH     0.1166 ****
8566 HC2   -21.287482   -8.716346   -5.169658 H    1377 MOH     0.0372 ****
8567 HC3   -20.654128   -9.741049   -3.845954 H    1377 MOH     0.0372 ****
8568 O1    -22.546105   -8.961703   -3.589274 O    1377 MOH    -0.6497 ****
8569 HO1   -22.189880   -8.765336   -2.720240 H    1377 MOH     0.4215 ****
8570 HC1   -27.610045   -8.033755    7.682715 H    1378 MOH     0.0372 ****
8571 C1    -27.652769   -7.159695    7.032884 C    1378 MOH     0.1166 ****
8572 HC2   -26.851984   -6.459549    7.271179 H    1378 MOH     0.0372 ****
8573 HC3   -28.592117   -6.643669    7.228045 H    1378 MOH     0.0372 ****
8574 O1    -27.652191   -7.514055    5.641298 O    1378 MOH    -0.6497 ****
8575 HO1   -27.543072   -6.721645    5.110260 H    1378 MOH     0.4215 ****
8576 HC1   -28.633109  -16.045219   -5.118746 H    1379 MOH     0.0372 ****
8577 C1    -28.618675  -15.337725   -5.948182 C    1379 MOH     0.1166 ****
8578 HC2   -29.609408  -14.906615   -6.089604 H    1379 MOH     0.0372 ****
8579 HC3   -28.279771  -15.830889   -6.858936 H    1379 MOH     0.0372 ****
8580 O1    -27.741680  -14.286077   -5.641298 O    1379 MOH    -0.6497 ****
8581 HO1   -27.545381  -14.279137   -4.701553 H    1379 MOH     0.4215 ****
8582 HC1   -22.501649  -19.879895    8.210924 H    1380 MOH     0.0372 ****
8583 C1    -22.426594  -18.838046    7.901211 C    1380 MOH     0.1166 ****
8584 HC2   -21.387941  -18.613509    7.657966 H    1380 MOH     0.0372 ****
8585 HC3   -22.788593  -18.236696    8.736304 H    1380 MOH     0.0372 ****
8586 O1    -23.314559  -18.680462    6.824995 O    1380 MOH    -0.6497 ****
8587 HO1   -22.947364  -19.200979    6.107281 H    1380 MOH     0.4215 ****
8588 HC1   -23.879207  -11.406702   -7.767568 H    1381 MOH     0.0372 ****
8589 C1    -23.135580  -11.927627   -8.370023 C    1381 MOH     0.1166 ****
8590 HC2   -22.219902  -11.338117   -8.418106 H    1381 MOH     0.0372 ****
8591 HC3   -23.471598  -12.048877   -9.400278 H    1381 MOH     0.0372 ****
8592 O1    -22.797253  -13.156454   -7.785953 O    1381 MOH    -0.6497 ****
8593 HO1   -23.501043  -13.427940   -7.192690 H    1381 MOH     0.4215 ****
8594 HC1   -23.163293  -17.083803   -3.107734 H    1382 MOH     0.0372 ****
8595 C1    -23.202553  -18.153413   -3.312795 C    1382 MOH     0.1166 ****
8596 HC2   -23.980821  -18.581666   -2.681349 H    1382 MOH     0.0372 ****
8597 HC3   -22.233759  -18.589831   -3.068844 H    1382 MOH     0.0372 ****
8598 O1    -23.491228  -18.445311   -4.681047 O    1382 MOH    -0.6497 ****
8599 HO1   -23.061679  -19.259766   -4.953283 H    1382 MOH     0.4215 ****
8600 HC1   -19.001752  -18.403670   -5.354213 H    1383 MOH     0.0372 ****
8601 C1    -19.524254  -17.474497   -5.126524 C    1383 MOH     0.1166 ****
8602 HC2   -20.556556  -17.687602   -4.847924 H    1383 MOH     0.0372 ****
8603 HC3   -19.483839  -16.828240   -6.002630 H    1383 MOH     0.0372 ****
8604 O1    -18.836630  -16.911114   -4.060207 O    1383 MOH    -0.6497 ****
8605 HO1   -18.374172  -17.626365   -3.617558 H    1383 MOH     0.4215 ****
8606 HC1   -25.601443  -23.189564    4.285774 H    1384 MOH     0.0372 ****
8607 C1    -25.350296  -23.710081    5.209963 C    1384 MOH     0.1166 ****
8608 HC2   -26.017135  -24.563728    5.330878 H    1384 MOH     0.0372 ****
8609 HC3   -25.473271  -23.040145    6.060612 H    1384 MOH     0.0372 ****
8610 O1    -24.010266  -24.140783    5.113089 O    1384 MOH    -0.6497 ****
8611 HO1   -23.820317  -24.696409    5.871815 H    1384 MOH     0.4215 ****
8612 HC1   -24.128622  -16.259141   -5.735343 H    1385 MOH     0.0372 ****
8613 C1    -25.065662  -16.003170   -6.228197 C    1385 MOH     0.1166 ****
8614 HC2   -25.903974  -16.335076   -5.615135 H    1385 MOH     0.0372 ****
8615 HC3   -25.084137  -16.502049   -7.196933 H    1385 MOH     0.0372 ****
8616 O1    -25.096261  -14.619616   -6.445278 O    1385 MOH    -0.6497 ****
8617 HO1   -26.012516  -14.378342   -6.597306 H    1385 MOH     0.4215 ****
8618 HC1   -27.458201  -20.969102   -7.443006 H    1386 MOH     0.0372 ****
8619 C1    -27.152783  -21.949306   -7.809995 C    1386 MOH     0.1166 ****
8620 HC2   -26.203619  -21.869698   -8.339617 H    1386 MOH     0.0372 ****
8621 HC3   -27.919504  -22.341633   -8.476796 H    1386 MOH     0.0372 ****
8622 O1    -26.999208  -22.869906   -6.735899 O    1386 MOH    -0.6497 ****
8623 HO1   -26.149926  -23.303874   -6.844087 H    1386 MOH     0.4215 ****
8624 HC1   -21.617149  -23.617409   -0.770039 H    1387 MOH     0.0372 ****
8625 C1    -20.745927  -23.114038   -1.189354 C    1387 MOH     0.1166 ****
8626 HC2   -21.043840  -22.164861   -1.632710 H    1387 MOH     0.0372 ****
8627 HC3   -20.307141  -23.725594   -1.978485 H    1387 MOH     0.0372 ****
8628 O1    -19.777133  -22.838879   -0.203647 O    1387 MOH    -0.6497 ****
8629 HO1   -19.347008  -23.677013   -0.020506 H    1387 MOH     0.4215 ****
8630 HC1   -30.172325  -17.293643  -12.517912 H    1388 MOH     0.0372 ****
8631 C1    -29.248565  -17.105440  -13.065919 C    1388 MOH     0.1166 ****
8632 HC2   -28.657935  -18.020325  -13.028443 H    1388 MOH     0.0372 ****
8633 HC3   -28.726063  -16.282003  -12.578723 H    1388 MOH     0.0372 ****
8634 O1    -29.521651  -16.753122  -14.420029 O    1388 MOH    -0.6497 ****
8635 HO1   -28.739919  -16.330993  -14.783482 H    1388 MOH     0.4215 ****
8636 HC1   -26.064478   -8.037837   -2.496794 H    1389 MOH     0.0372 ****
8637 C1    -27.079460   -8.421182   -2.600739 C    1389 MOH     0.1166 ****
8638 HC2   -27.800570   -7.603869   -2.579526 H    1389 MOH     0.0372 ****
8639 HC3   -27.314441   -9.116021   -1.794637 H    1389 MOH     0.0372 ****
8640 O1    -27.207054   -9.133167   -3.783021 O    1389 MOH    -0.6497 ****
8641 HO1   -26.486521   -9.766361   -3.814841 H    1389 MOH     0.4215 ****
8642 HC1   -26.530977  -22.371843   -2.423962 H    1390 MOH     0.0372 ****
8643 C1    -27.029230  -23.147515   -3.003790 C    1390 MOH     0.1166 ****
8644 HC2   -26.302346  -23.892976   -3.326230 H    1390 MOH     0.0372 ****
8645 HC3   -27.491688  -22.673539   -3.869996 H    1390 MOH     0.0372 ****
8646 O1    -28.004375  -23.778258   -2.206880 O    1390 MOH    -0.6497 ****
8647 HO1   -27.532680  -24.147315   -1.457347 H    1390 MOH     0.4215 ****
8648 HC1   -23.190428  -16.319970    4.763071 H    1391 MOH     0.0372 ****
8649 C1    -23.812812  -15.425498    4.753879 C    1391 MOH     0.1166 ****
8650 HC2   -23.368830  -14.638396    5.363405 H    1391 MOH     0.0372 ****
8651 HC3   -24.784492  -15.703515    5.163294 H    1391 MOH     0.0372 ****
8652 O1    -23.992368  -14.972751    3.432296 O    1391 MOH    -0.6497 ****
8653 HO1   -23.135003  -14.697183    3.099249 H    1391 MOH     0.4215 ****
8654 HC1   -27.206477  -10.673080   -6.717515 H    1392 MOH     0.0372 ****
8655 C1    -26.613538  -11.011518   -7.566750 C    1392 MOH     0.1166 ****
8656 HC2   -26.246343  -12.007235   -7.318555 H    1392 MOH     0.0372 ****
8657 HC3   -25.766565  -10.341582   -7.718778 H    1392 MOH     0.0372 ****
8658 O1    -27.417787  -11.062549   -8.737012 O    1392 MOH    -0.6497 ****
8659 HO1   -27.010755  -11.712888   -9.314718 H    1392 MOH     0.4215 ****
8660 HC1   -27.561547  -16.140341    2.603567 H    1393 MOH     0.0372 ****
8661 C1    -27.107750  -15.260974    3.060358 C    1393 MOH     0.1166 ****
8662 HC2   -26.270592  -14.944174    2.438104 H    1393 MOH     0.0372 ****
8663 HC3   -26.804064  -15.510006    4.077178 H    1393 MOH     0.0372 ****
8664 O1    -28.058068  -14.263215    3.025003 O    1393 MOH    -0.6497 ****
8665 HO1   -28.386003  -14.207694    2.124149 H    1393 MOH     0.4215 ****
8666 HC1   -20.198599  -12.821282    7.980407 H    1394 MOH     0.0372 ****
8667 C1    -20.451479  -11.956613    8.594176 C    1394 MOH     0.1166 ****
8668 HC2   -19.643766  -11.773309    9.301990 H    1394 MOH     0.0372 ****
8669 HC3   -21.369466  -12.189314    9.132991 H    1394 MOH     0.0372 ****
8670 O1    -20.643736  -10.848218    7.737869 O    1394 MOH    -0.6497 ****
8671 HO1   -21.329051  -11.119295    7.122686 H    1394 MOH     0.4215 ****
8672 HC1   -23.939252  -20.080754    4.446287 H    1395 MOH     0.0372 ****
8673 C1    -23.116527  -20.771510    4.261025 C    1395 MOH     0.1166 ****
8674 HC2   -22.841131  -20.650260    3.213800 H    1395 MOH     0.0372 ****
8675 HC3   -23.424833  -21.811318    4.367799 H    1395 MOH     0.0372 ****
8676 O1    -22.026490  -20.460833    5.145616 O    1395 MOH    -0.6497 ****
8677 HO1   -21.415654  -21.201395    5.158344 H    1395 MOH     0.4215 ****
8678 HC1   -28.192014  -18.739250   -4.748929 H    1396 MOH     0.0372 ****
8679 C1    -27.264789  -18.916021   -4.205164 C    1396 MOH     0.1166 ****
8680 HC2   -27.330607  -19.840704   -3.631701 H    1396 MOH     0.0372 ****
8681 HC3   -27.041355  -18.079521   -3.542605 H    1396 MOH     0.0372 ****
8682 O1    -26.261354  -19.018083   -5.135717 O    1396 MOH    -0.6497 ****
8683 HO1   -25.451332  -18.677196   -4.748929 H    1396 MOH     0.4215 ****
8684 HC1   -30.288950  -18.595138  -10.021825 H    1397 MOH     0.0372 ****
8685 C1    -30.008935  -19.503491   -9.487959 C    1397 MOH     0.1166 ****
8686 HC2   -29.200644  -19.999104  -10.025360 H    1397 MOH     0.0372 ****
8687 HC3   -30.839742  -20.209352   -9.464624 H    1397 MOH     0.0372 ****
8688 O1    -29.571303  -19.242212   -8.168498 O    1397 MOH    -0.6497 ****
8689 HO1   -29.918868  -19.946848   -7.616954 H    1397 MOH     0.4215 ****
8690 HC1   -19.105098  -19.123003    3.381385 H    1398 MOH     0.0372 ****
8691 C1    -19.936482  -18.439595    3.211679 C    1398 MOH     0.1166 ****
8692 HC2   -20.858511  -18.899691    3.568768 H    1398 MOH     0.0372 ****
8693 HC3   -20.006919  -18.251393    2.140412 H    1398 MOH     0.0372 ****
8694 O1    -19.608547  -17.218933    3.863631 O    1398 MOH    -0.6497 ****
8695 HO1   -18.995401  -17.416117    4.575688 H    1398 MOH     0.4215 ****
8696 HC1   -26.598527  -16.893559   11.864545 H    1399 MOH     0.0372 ****
8697 C1    -27.489956  -16.266898   11.832725 C    1399 MOH     0.1166 ****
8698 HC2   -28.378498  -16.897642   11.792420 H    1399 MOH     0.0372 ****
8699 HC3   -27.480718  -15.648810   10.934699 H    1399 MOH     0.0372 ****
8700 O1    -27.479564  -15.419375   12.954196 O    1399 MOH    -0.6497 ****
8701 HO1   -26.723812  -14.839254   12.837523 H    1399 MOH     0.4215 ****
8702 HC1   -19.345275  -16.296700   -0.596091 H    1400 MOH     0.0372 ****
8703 C1    -20.355061  -16.617583   -0.852064 C    1400 MOH     0.1166 ****
8704 HC2   -21.052500  -16.186881   -0.132936 H    1400 MOH     0.0372 ****
8705 HC3   -20.436467  -17.703932   -0.817416 H    1400 MOH     0.0372 ****
8706 O1    -20.710131  -16.158304   -2.124149 O    1400 MOH    -0.6497 ****
8707 HO1   -20.111419  -16.565736   -2.753474 H    1400 MOH     0.4215 ****
8708 HC1   -24.941532  -15.631664   10.451038 H    1401 MOH     0.0372 ****
8709 C1    -24.716942  -14.565727   10.501243 C    1401 MOH     0.1166 ****
8710 HC2   -25.076054  -14.017858    9.630087 H    1401 MOH     0.0372 ****
8711 HC3   -23.630947  -14.519187   10.429118 H    1401 MOH     0.0372 ****
8712 O1    -25.077786  -13.967644   11.767671 O    1401 MOH    -0.6497 ****
8713 HO1   -25.149955  -13.018875   11.641806 H    1401 MOH     0.4215 ****
8714 HC1   -23.542035   -9.188281    0.678115 H    1402 MOH     0.0372 ****
8715 C1    -24.034514   -8.751864   -0.190919 C    1402 MOH     0.1166 ****
8716 HC2   -24.976750   -8.264415    0.059397 H    1402 MOH     0.0372 ****
8717 HC3   -24.286816   -9.586323   -0.845700 H    1402 MOH     0.0372 ****
8718 O1    -23.196779   -7.826773   -0.890955 O    1402 MOH    -0.6497 ****
8719 HO1   -23.737756   -7.127035   -1.262893 H    1402 MOH     0.4215 ****
8720 HC1   -17.200997  -20.588206   -1.660994 H    1403 MOH     0.0372 ****
8721 C1    -18.106859  -20.263649   -2.172232 C    1403 MOH     0.1166 ****
8722 HC2   -18.992514  -20.656384   -1.673015 H    1403 MOH     0.0372 ****
8723 HC3   -18.099354  -20.611885   -3.205315 H    1403 MOH     0.0372 ****
8724 O1    -18.199813  -18.871522   -2.158090 O    1403 MOH    -0.6497 ****
8725 HO1   -17.929613  -18.586157   -1.281985 H    1403 MOH     0.4215 ****
8726 HC1   -24.666713  -16.024399    0.323855 H    1404 MOH     0.0372 ****
8727 C1    -24.003337  -16.846202    0.593262 C    1404 MOH     0.1166 ****
8728 HC2   -22.987201  -16.460000    0.671044 H    1404 MOH     0.0372 ****
8729 HC3   -24.017194  -17.628814   -0.165463 H    1404 MOH     0.0372 ****
8730 O1    -24.381502  -17.273230    1.880197 O    1404 MOH    -0.6497 ****
8731 HO1   -24.327808  -16.504090    2.451539 H    1404 MOH     0.4215 ****
8732 HC1   -20.886801   -9.825148    4.427195 H    1405 MOH     0.0372 ****
8733 C1    -21.226283  -10.571018    3.708068 C    1405 MOH     0.1166 ****
8734 HC2   -21.732619  -11.408335    4.189608 H    1405 MOH     0.0372 ****
8735 HC3   -20.339473  -10.967835    3.213093 H    1405 MOH     0.0372 ****
8736 O1    -22.067482   -9.950481    2.753474 O    1405 MOH    -0.6497 ****
8737 HO1   -21.538052   -9.265440    2.337695 H    1405 MOH     0.4215 ****
8738 HC1   -27.518246  -12.328935   -1.409971 H    1406 MOH     0.0372 ****
8739 C1    -26.861799  -12.053367   -0.584777 C    1406 MOH     0.1166 ****
8740 HC2   -27.408549  -12.089293    0.358503 H    1406 MOH     0.0372 ****
8741 HC3   -26.515388  -11.030706   -0.735391 H    1406 MOH     0.0372 ****
8742 O1    -25.742894  -12.925386   -0.519724 O    1406 MOH    -0.6497 ****
8743 HO1   -25.137831  -12.598787    0.150614 H    1406 MOH     0.4215 ****
8744 HC1   -23.741798   -7.614076    6.357597 H    1407 MOH     0.0372 ****
8745 C1    -24.053567   -8.032938    7.315019 C    1407 MOH     0.1166 ****
8746 HC2   -24.580688   -7.286660    7.907575 H    1407 MOH     0.0372 ****
8747 HC3   -23.160983   -8.366477    7.843228 H    1407 MOH     0.0372 ****
8748 O1    -24.868208   -9.147048    7.088038 O    1407 MOH    -0.6497 ****
8749 HO1   -25.554100   -8.905773    6.462249 H    1407 MOH     0.4215 ****
8750 HC1   -28.904464  -10.689818    5.149858 H    1408 MOH     0.0372 ****
8751 C1    -28.322495  -10.447319    4.260318 C    1408 MOH     0.1166 ****
8752 HC2   -28.358868  -11.269122    3.545433 H    1408 MOH     0.0372 ****
8753 HC3   -27.295389  -10.304024    4.597608 H    1408 MOH     0.0372 ****
8754 O1    -28.788417   -9.202978    3.728574 O    1408 MOH    -0.6497 ****
8755 HO1   -28.372724   -8.525694    4.266682 H    1408 MOH     0.4215 ****
8756 HC1   -28.552280   -8.080295   -7.204711 H    1409 MOH     0.0372 ****
8757 C1    -29.399830   -8.744923   -7.035006 C    1409 MOH     0.1166 ****
8758 HC2   -30.265278   -8.101116   -6.878735 H    1409 MOH     0.0372 ****
8759 HC3   -29.167158   -9.346681   -6.156779 H    1409 MOH     0.0372 ****
8760 O1    -29.533198   -9.446702   -8.250522 O    1409 MOH    -0.6497 ****
8761 HO1   -28.687380   -9.852501   -8.455583 H    1409 MOH     0.4215 ****
8762 HC1   -17.601100  -21.694151    2.776101 H    1410 MOH     0.0372 ****
8763 C1    -17.217162  -21.097292    1.948786 C    1410 MOH     0.1166 ****
8764 HC2   -16.529538  -21.714563    1.370373 H    1410 MOH     0.0372 ****
8765 HC3   -16.716022  -20.235480    2.390728 H    1410 MOH     0.0372 ****
8766 O1    -18.282374  -20.657608    1.161776 O    1410 MOH    -0.6497 ****
8767 HO1   -18.811804  -21.413684    0.900147 H    1410 MOH     0.4215 ****
8768 HC1   -27.134885  -12.697991    7.376538 H    1411 MOH     0.0372 ****
8769 C1    -27.071377  -13.621041    6.800246 C    1411 MOH     0.1166 ****
8770 HC2   -26.039652  -13.825165    6.514575 H    1411 MOH     0.0372 ****
8771 HC3   -27.688564  -13.509181    5.909291 H    1411 MOH     0.0372 ****
8772 O1    -27.589260  -14.674321    7.565335 O    1411 MOH    -0.6497 ****
8773 HO1   -27.339267  -15.498983    7.141071 H    1411 MOH     0.4215 ****
8774 HC1   -18.774276  -12.702891   -3.999396 H    1412 MOH     0.0372 ****
8775 C1    -19.221145  -12.288927   -4.903079 C    1412 MOH     0.1166 ****
8776 HC2   -20.248829  -11.970085   -4.731252 H    1412 MOH     0.0372 ****
8777 HC3   -19.190546  -13.061333   -5.672411 H    1412 MOH     0.0372 ****
8778 O1    -18.410545  -11.224623   -5.291280 O    1412 MOH    -0.6497 ****
8779 HO1   -18.228680  -10.678387   -4.523362 H    1412 MOH     0.4215 ****
8780 HC1   -25.548327  -14.955196   -9.405227 H    1413 MOH     0.0372 ****
8781 C1    -26.472664  -14.439987   -9.666857 C    1413 MOH     0.1166 ****
8782 HC2   -27.185692  -14.486936   -8.843078 H    1413 MOH     0.0372 ****
8783 HC3   -26.908564  -14.886202  -10.559933 H    1413 MOH     0.0372 ****
8784 O1    -26.234796  -13.090726   -9.946164 O    1413 MOH    -0.6497 ****
8785 HO1   -25.730192  -13.060516  -10.762165 H    1413 MOH     0.4215 ****
8786 HC1   -26.991703   -9.875771   11.233805 H    1414 MOH     0.0372 ****
8787 C1    -26.554071  -10.779224   10.808834 C    1414 MOH     0.1166 ****
8788 HC2   -26.310429  -10.584082    9.765144 H    1414 MOH     0.0372 ****
8789 HC3   -27.259593  -11.605519   10.902172 H    1414 MOH     0.0372 ****
8790 O1    -25.417846  -11.076837   11.556246 O    1414 MOH    -0.6497 ****
8791 HO1   -24.790266  -10.350972   11.508163 H    1414 MOH     0.4215 ****
8792 HC1   -25.010814  -12.089702    7.431692 H    1415 MOH     0.0372 ****
8793 C1    -24.085321  -11.790047    7.925253 C    1415 MOH     0.1166 ****
8794 HC2   -23.641339  -12.644103    8.437198 H    1415 MOH     0.0372 ****
8795 HC3   -24.331272  -11.038054    8.674786 H    1415 MOH     0.0372 ****
8796 O1    -23.203130  -11.290760    6.899241 O    1415 MOH    -0.6497 ****
8797 HO1   -23.393656  -10.352605    6.824287 H    1415 MOH     0.4215 ****
8798 HC1   -26.593908   -8.220733    2.779637 H    1416 MOH     0.0372 ****
8799 C1    -25.648208   -7.877804    3.199658 C    1416 MOH     0.1166 ****
8800 HC2   -25.761946   -6.903315    3.675541 H    1416 MOH     0.0372 ****
8801 HC3   -24.918438   -7.764311    2.397799 H    1416 MOH     0.0372 ****
8802 O1    -25.206535   -8.800037    4.171930 O    1416 MOH    -0.6497 ****
8803 HO1   -24.375151   -9.188281    3.889794 H    1416 MOH     0.4215 ****
8804 HC1   -26.675892  -16.286494   -2.149605 H    1417 MOH     0.0372 ****
8805 C1    -25.894160  -15.613293   -2.501037 C    1417 MOH     0.1166 ****
8806 HC2   -25.334707  -16.048077   -3.329059 H    1417 MOH     0.0372 ****
8807 HC3   -25.208845  -15.408352   -1.679379 H    1417 MOH     0.0372 ****
8808 O1    -26.468046  -14.413859   -2.946514 O    1417 MOH    -0.6497 ****
8809 HO1   -26.272901  -13.770460   -2.260621 H    1417 MOH     0.4215 ****
8810 HC1   -21.776036    6.454405   -1.878076 H    1418 MOH     0.0372 ****
8811 C1    -22.812379    6.593210   -1.571192 C    1418 MOH     0.1166 ****
8812 HC2   -23.375873    6.957367   -2.429619 H    1418 MOH     0.0372 ****
8813 HC3   -22.882239    7.343162   -0.782767 H    1418 MOH     0.0372 ****
8814 O1    -23.337768    5.350502   -1.153999 O    1418 MOH    -0.6497 ****
8815 HO1   -24.100448    5.502779   -0.591849 H    1418 MOH     0.4215 ****
8816 HC1   -27.277606   -4.086565    2.213244 H    1419 MOH     0.0372 ****
8817 C1    -28.078391   -4.480525    2.839033 C    1419 MOH     0.1166 ****
8818 HC2   -28.644194   -5.210881    2.259913 H    1419 MOH     0.0372 ****
8819 HC3   -28.751004   -3.703628    3.200365 H    1419 MOH     0.0372 ****
8820 O1    -27.581293   -5.221496    3.883430 O    1419 MOH    -0.6497 ****
8821 HO1   -27.036851   -4.625453    4.402447 H    1419 MOH     0.4215 ****
8822 HC1   -15.168262   -2.847532    6.719636 H    1420 MOH     0.0372 ****
8823 C1    -15.107063   -2.067778    7.477654 C    1420 MOH     0.1166 ****
8824 HC2   -14.746796   -2.513585    8.405378 H    1420 MOH     0.0372 ****
8825 HC3   -16.100105   -1.642383    7.623318 H    1420 MOH     0.0372 ****
8826 O1    -14.235841   -1.045116    7.049854 O    1420 MOH    -0.6497 ****
8827 HO1   -13.349031   -1.405191    6.983386 H    1420 MOH     0.4215 ****
8828 HC1   -15.547003   -8.952069   -6.693473 H    1421 MOH     0.0372 ****
8829 C1    -15.734065   -9.937988   -6.268502 C    1421 MOH     0.1166 ****
8830 HC2   -16.126086   -9.843275   -5.255925 H    1421 MOH     0.0372 ****
8831 HC3   -14.776818  -10.454422   -6.199912 H    1421 MOH     0.0372 ****
8832 O1    -16.575264  -10.741829   -7.117737 O    1421 MOH    -0.6497 ****
8833 HO1   -17.291179  -11.088024   -6.580336 H    1421 MOH     0.4215 ****
8834 HC1   -20.726413    5.003083    2.790950 H    1422 MOH     0.0372 ****
8835 C1    -20.122504    5.554626    3.511492 C    1422 MOH     0.1166 ****
8836 HC2   -19.310750    4.919392    3.865045 H    1422 MOH     0.0372 ****
8837 HC3   -20.770869    5.840400    4.340221 H    1422 MOH     0.0372 ****
8838 O1    -19.617900    6.678534    2.856004 O    1422 MOH    -0.6497 ****
8839 HO1   -18.804991    6.940221    3.295117 H    1422 MOH     0.4215 ****
8840 HC1   -14.022221   -1.404374   -9.670392 H    1423 MOH     0.0372 ****
8841 C1    -14.814346   -1.936730   -9.144305 C    1423 MOH     0.1166 ****
8842 HC2   -14.787210   -1.679125   -8.085766 H    1423 MOH     0.0372 ****
8843 HC3   -14.648646   -3.004299   -9.286433 H    1423 MOH     0.0372 ****
8844 O1    -16.042947   -1.521133   -9.700091 O    1423 MOH    -0.6497 ****
8845 HO1   -16.737500   -1.879983   -9.142184 H    1423 MOH     0.4215 ****
8846 HC1   -13.325937    6.486657  -10.789743 H    1424 MOH     0.0372 ****
8847 C1    -12.788424    6.829177  -11.674333 C    1424 MOH     0.1166 ****
8848 HC2   -13.116359    6.255180  -12.541246 H    1424 MOH     0.0372 ****
8849 HC3   -11.728986    6.644649  -11.496142 H    1424 MOH     0.0372 ****
8850 O1    -13.048809    8.209873  -11.943034 O    1424 MOH    -0.6497 ****
8851 HO1   -12.789579    8.414814  -12.843888 H    1424 MOH     0.4215 ****
8852 HC1    -9.957098    4.654439   -2.147483 H    1425 MOH     0.0372 ****
8853 C1     -9.908601    3.566865   -2.198395 C    1425 MOH     0.1166 ****
8854 HC2   -10.286765    3.212098   -3.156525 H    1425 MOH     0.0372 ****
8855 HC3   -10.515396    3.120242   -1.410678 H    1425 MOH     0.0372 ****
8856 O1     -8.572035    3.132489   -2.124856 O    1425 MOH    -0.6497 ****
8857 HO1    -8.604367    2.173106   -2.103643 H    1425 MOH     0.4215 ****
8858 HC1   -18.867345    3.629735   -7.720899 H    1426 MOH     0.0372 ****
8859 C1    -18.821734    3.174947   -8.710849 C    1426 MOH     0.1166 ****
8860 HC2   -17.904325    2.596051   -8.819743 H    1426 MOH     0.0372 ****
8861 HC3   -18.832126    3.952660   -9.473817 H    1426 MOH     0.0372 ****
8862 O1    -19.925051    2.338446   -8.927930 O    1426 MOH    -0.6497 ****
8863 HO1   -19.665820    1.450914   -8.670544 H    1426 MOH     0.4215 ****
8864 HC1   -28.065689    2.468269    3.379970 H    1427 MOH     0.0372 ****
8865 C1    -27.025304    2.495622    3.053994 C    1427 MOH     0.1166 ****
8866 HC2   -26.441026    1.855897    3.716553 H    1427 MOH     0.0372 ****
8867 HC3   -26.684090    3.529306    3.107734 H    1427 MOH     0.0372 ****
8868 O1    -26.958332    2.013481    1.730997 O    1427 MOH    -0.6497 ****
8869 HO1   -27.553002    1.260671    1.687157 H    1427 MOH     0.4215 ****
8870 HC1   -25.185289   -2.213930   -0.779939 H    1428 MOH     0.0372 ****
8871 C1    -24.270766   -1.907744   -1.287642 C    1428 MOH     0.1166 ****
8872 HC2   -23.675518   -1.253322   -0.650538 H    1428 MOH     0.0372 ****
8873 HC3   -24.546162   -1.361508   -2.189910 H    1428 MOH     0.0372 ****
8874 O1    -23.568708   -3.047165   -1.685743 O    1428 MOH    -0.6497 ****
8875 HO1   -22.633978   -2.848348   -1.595940 H    1428 MOH     0.4215 ****
8876 HC1   -11.918934   -6.394393   -4.213649 H    1429 MOH     0.0372 ****
8877 C1    -11.871592   -5.670977   -3.399062 C    1429 MOH     0.1166 ****
8878 HC2   -12.664871   -4.943479   -3.570182 H    1429 MOH     0.0372 ****
8879 HC3   -10.910881   -5.157401   -3.445731 H    1429 MOH     0.0372 ****
8880 O1    -12.056921   -6.312743   -2.105057 O    1429 MOH    -0.6497 ****
8881 HO1   -12.248601   -5.637092   -1.449569 H    1429 MOH     0.4215 ****
8882 HC1   -28.239472   -2.551552   -5.635641 H    1430 MOH     0.0372 ****
8883 C1    -28.196748   -2.309869   -4.573567 C    1430 MOH     0.1166 ****
8884 HC2   -27.159827   -2.371923   -4.242641 H    1430 MOH     0.0372 ****
8885 HC3   -28.794305   -3.011648   -3.991618 H    1430 MOH     0.0372 ****
8886 O1    -28.630338   -1.016130   -4.304159 O    1430 MOH    -0.6497 ****
8887 HO1   -29.399946   -0.824662   -4.845096 H    1430 MOH     0.4215 ****
8888 HC1    -5.161050    2.320075    0.105359 H    1431 MOH     0.0372 ****
8889 C1     -5.078488    3.259863    0.651245 C    1431 MOH     0.1166 ****
8890 HC2    -5.905254    3.915509    0.378302 H    1431 MOH     0.0372 ****
8891 HC3    -4.121242    3.722000    0.406586 H    1431 MOH     0.0372 ****
8892 O1     -5.119480    2.901829    1.992627 O    1431 MOH    -0.6497 ****
8893 HO1    -4.895468    3.644841    2.556898 H    1431 MOH     0.4215 ****
8894 HC1   -17.253651    6.944303   -0.151321 H    1432 MOH     0.0372 ****
8895 C1    -17.919336    7.803258   -0.066468 C    1432 MOH     0.1166 ****
8896 HC2   -18.961453    7.483191   -0.073539 H    1432 MOH     0.0372 ****
8897 HC3   -17.784236    8.427878   -0.948938 H    1432 MOH     0.0372 ****
8898 O1    -17.693592    8.600158    1.137027 O    1432 MOH    -0.6497 ****
8899 HO1   -17.766338    8.033102    1.907067 H    1432 MOH     0.4215 ****
8900 HC1   -24.930100   -0.442133   -5.248854 H    1433 MOH     0.0372 ****
8901 C1    -25.470500    0.427436   -5.622206 C    1433 MOH     0.1166 ****
8902 HC2   -25.913905    0.097980   -6.561951 H    1433 MOH     0.0372 ****
8903 HC3   -24.747657    1.230460   -5.768577 H    1433 MOH     0.0372 ****
8904 O1    -26.461810    0.765874   -4.628721 O    1433 MOH    -0.6497 ****
8905 HO1   -27.097473    0.051848   -4.545990 H    1433 MOH     0.4215 ****
8906 HC1   -26.486636   -7.214156   -9.557963 H    1434 MOH     0.0372 ****
8907 C1    -26.073831   -6.206599   -9.594732 C    1434 MOH     0.1166 ****
8908 HC2   -26.159279   -5.735889   -8.615389 H    1434 MOH     0.0372 ****
8909 HC3   -26.650604   -5.618721  -10.308910 H    1434 MOH     0.0372 ****
8910 O1    -24.734378   -6.262121  -10.026067 O    1434 MOH    -0.6497 ****
8911 HO1   -24.700892   -6.922666  -10.721860 H    1434 MOH     0.4215 ****
8912 HC1   -10.373368   -9.057397   -3.609073 H    1435 MOH     0.0372 ****
8913 C1    -11.053486   -9.626086   -2.974798 C    1435 MOH     0.1166 ****
8914 HC2   -10.698993   -9.588936   -1.944544 H    1435 MOH     0.0372 ****
8915 HC3   -11.108335  -10.662629   -3.306431 H    1435 MOH     0.0372 ****
8916 O1    -12.286129   -9.003100   -3.056823 O    1435 MOH    -0.6497 ****
8917 HO1   -12.183938   -8.110261   -2.720947 H    1435 MOH     0.4215 ****
8918 HC1   -20.313030   11.198251    2.582354 H    1436 MOH     0.0372 ****
8919 C1    -20.767405   11.496272    1.637659 C    1436 MOH     0.1166 ****
8920 HC2   -21.848204   11.361550    1.685742 H    1436 MOH     0.0372 ****
8921 HC3   -20.344784   10.871652    0.849942 H    1436 MOH     0.0372 ****
8922 O1    -20.485658   12.853697    1.378151 O    1436 MOH    -0.6497 ****
8923 HO1   -20.755280   13.048024    0.477297 H    1436 MOH     0.4215 ****
8924 HC1   -19.272068   14.111919    5.705644 H    1437 MOH     0.0372 ****
8925 C1    -19.613859   13.442391    4.916513 C    1437 MOH     0.1166 ****
8926 HC2   -20.112112   12.566291    5.332292 H    1437 MOH     0.0372 ****
8927 HC3   -18.741483   13.124366    4.345878 H    1437 MOH     0.0372 ****
8928 O1    -20.395014   14.172339    3.994446 O    1437 MOH    -0.6497 ****
8929 HO1   -20.367878   13.685299    3.167838 H    1437 MOH     0.4215 ****
8930 HC1   -16.505405   -2.594010    1.374615 H    1438 MOH     0.0372 ****
8931 C1    -16.645701   -2.748327    0.305470 C    1438 MOH     0.1166 ****
8932 HC2   -16.842000   -1.793843   -0.183848 H    1438 MOH     0.0372 ****
8933 HC3   -17.479972   -3.427244    0.129400 H    1438 MOH     0.0372 ****
8934 O1    -15.470216   -3.302729   -0.246073 O    1438 MOH    -0.6497 ****
8935 HO1   -14.823584   -3.403566    0.456084 H    1438 MOH     0.4215 ****
8936 HC1   -13.742207    5.442358    2.665085 H    1439 MOH     0.0372 ****
8937 C1    -13.259542    4.476443    2.518007 C    1439 MOH     0.1166 ****
8938 HC2   -14.032614    3.722408    2.370222 H    1439 MOH     0.0372 ****
8939 HC3   -12.694893    4.233943    3.417447 H    1439 MOH     0.0372 ****
8940 O1    -12.351370    4.504203    1.395122 O    1439 MOH    -0.6497 ****
8941 HO1   -11.640074    5.108411    1.624224 H    1439 MOH     0.4215 ****
8942 HC1   -19.049210   -2.800175   -5.994144 H    1440 MOH     0.0372 ****
8943 C1    -19.210291   -3.813039   -5.625742 C    1440 MOH     0.1166 ****
8944 HC2   -19.961424   -3.768132   -4.838025 H    1440 MOH     0.0372 ****
8945 HC3   -18.285376   -4.213531   -5.210670 H    1440 MOH     0.0372 ****
8946 O1    -19.661779   -4.659746   -6.682159 O    1440 MOH    -0.6497 ****
8947 HO1   -19.257056   -5.517884   -6.532253 H    1440 MOH     0.4215 ****
8948 HC1   -10.043701   -8.683033    1.619982 H    1441 MOH     0.0372 ****
8949 C1    -10.209978   -8.596076    2.694077 C    1441 MOH     0.1166 ****
8950 HC2   -10.137809   -7.539938    2.953585 H    1441 MOH     0.0372 ****
8951 HC3    -9.423049   -9.150069    3.206729 H    1441 MOH     0.0372 ****
8952 O1    -11.535574   -9.114960    2.928129 O    1441 MOH    -0.6497 ****
8953 HO1   -11.846766   -8.766316    3.766758 H    1441 MOH     0.4215 ****
8954 HC1   -11.177617    8.714060   10.801056 H    1442 MOH     0.0372 ****
8955 C1    -11.888912    7.888174   10.790449 C    1442 MOH     0.1166 ****
8956 HC2   -11.526914    7.157001   10.067079 H    1442 MOH     0.0372 ****
8957 HC3   -12.877913    8.260496   10.520335 H    1442 MOH     0.0372 ****
8958 O1    -11.952421    7.314585   12.075262 O    1442 MOH    -0.6497 ****
8959 HO1   -12.228394    7.998401   12.689738 H    1442 MOH     0.4215 ****
8960 HC1   -15.247936   10.243766   -6.206984 H    1443 MOH     0.0372 ****
8961 C1    -15.828750   10.625070   -5.366941 C    1443 MOH     0.1166 ****
8962 HC2   -15.531415   11.632219   -5.074906 H    1443 MOH     0.0372 ****
8963 HC3   -15.620904    9.969831   -4.520534 H    1443 MOH     0.0372 ****
8964 O1    -17.208040   10.581387   -5.651905 O    1443 MOH    -0.6497 ****
8965 HO1   -17.613340    9.906553   -5.102483 H    1443 MOH     0.4215 ****
8966 HC1   -26.670234   -0.113085    4.818932 H    1444 MOH     0.0372 ****
8967 C1    -27.061677   -0.882225    4.154252 C    1444 MOH     0.1166 ****
8968 HC2   -26.562269   -0.848340    3.186223 H    1444 MOH     0.0372 ****
8969 HC3   -28.133239   -0.719742    4.029801 H    1444 MOH     0.0372 ****
8970 O1    -26.920804   -2.149019    4.739029 O    1444 MOH    -0.6497 ****
8971 HO1   -27.367096   -2.149427    5.588265 H    1444 MOH     0.4215 ****
8972 HC1   -16.315457    1.245974   -0.429921 H    1445 MOH     0.0372 ****
8973 C1    -17.378936    1.446832   -0.561443 C    1445 MOH     0.1166 ****
8974 HC2   -17.960905    0.525824   -0.534573 H    1445 MOH     0.0372 ****
8975 HC3   -17.544058    1.917542   -1.530886 H    1445 MOH     0.0372 ****
8976 O1    -17.829269    2.337221    0.417900 O    1445 MOH    -0.6497 ****
8977 HO1   -17.718995    3.231693    0.087681 H    1445 MOH     0.4215 ****
8978 HC1   -12.602517    4.173522   -3.226528 H    1446 MOH     0.0372 ****
8979 C1    -13.006662    4.519309   -4.177587 C    1446 MOH     0.1166 ****
8980 HC2   -13.939660    3.995934   -4.389719 H    1446 MOH     0.0372 ****
8981 HC3   -12.285552    4.374380   -4.981567 H    1446 MOH     0.0372 ****
8982 O1    -13.253191    5.885307   -4.023438 O    1446 MOH    -0.6497 ****
8983 HO1   -12.428735    6.340912   -3.835347 H    1446 MOH     0.4215 ****
8984 HC1   -15.650349   -3.507261    3.396234 H    1447 MOH     0.0372 ****
8985 C1    -14.896330   -4.260887    3.168545 C    1447 MOH     0.1166 ****
8986 HC2   -15.382459   -5.150460    2.769030 H    1447 MOH     0.0372 ****
8987 HC3   -14.407314   -4.550335    4.098391 H    1447 MOH     0.0372 ****
8988 O1    -13.962177   -3.718734    2.223851 O    1447 MOH    -0.6497 ****
8989 HO1   -13.745671   -2.820996    2.483359 H    1447 MOH     0.4215 ****
8990 HC1   -17.404917    4.845499   -5.690088 H    1448 MOH     0.0372 ****
8991 C1    -17.642208    4.558909   -4.664784 C    1448 MOH     0.1166 ****
8992 HC2   -16.880105    3.896322   -4.255369 H    1448 MOH     0.0372 ****
8993 HC3   -18.595413    4.030227   -4.683876 H    1448 MOH     0.0372 ****
8994 O1    -17.743821    5.685266   -3.826862 O    1448 MOH    -0.6497 ****
8995 HO1   -16.970172    6.241708   -3.946363 H    1448 MOH     0.4215 ****
8996 HC1   -19.713740  -10.136805    0.661852 H    1449 MOH     0.0372 ****
8997 C1    -20.120772   -9.136188    0.516895 C    1449 MOH     0.1166 ****
8998 HC2   -21.166354   -9.181912    0.211425 H    1449 MOH     0.0372 ****
8999 HC3   -19.564207   -8.678542   -0.299813 H    1449 MOH     0.0372 ****
9000 O1    -19.966042   -8.312343    1.673722 O    1449 MOH    -0.6497 ****
9001 HO1   -19.683141   -7.432160    1.413506 H    1449 MOH     0.4215 ****
9002 HC1   -10.362975    6.060854   -4.893179 H    1450 MOH     0.0372 ****
9003 C1     -9.942664    6.944303   -4.412346 C    1450 MOH     0.1166 ****
9004 HC2    -9.689208    7.686091   -5.169658 H    1450 MOH     0.0372 ****
9005 HC3    -9.055854    6.661387   -3.845954 H    1450 MOH     0.0372 ****
9006 O1    -10.947831    7.440733   -3.589274 O    1450 MOH    -0.6497 ****
9007 HO1   -10.591606    7.637101   -2.720240 H    1450 MOH     0.4215 ****
9008 HC1   -16.011771    8.368682    7.682715 H    1451 MOH     0.0372 ****
9009 C1    -16.054494    9.242741    7.032884 C    1451 MOH     0.1166 ****
9010 HC2   -15.253710    9.942887    7.271179 H    1451 MOH     0.0372 ****
9011 HC3   -16.993843    9.758767    7.228045 H    1451 MOH     0.0372 ****
9012 O1    -16.053917    8.888382    5.641298 O    1451 MOH    -0.6497 ****
9013 HO1   -15.944798    9.680792    5.110260 H    1451 MOH     0.4215 ****
9014 HC1   -21.698093    4.099221   -3.703118 H    1452 MOH     0.0372 ****
9015 C1    -22.280640    3.226386   -3.407548 C    1452 MOH     0.1166 ****
9016 HC2   -21.944622    2.311502   -3.894744 H    1452 MOH     0.0372 ****
9017 HC3   -23.300818    3.406424   -3.744838 H    1452 MOH     0.0372 ****
9018 O1    -22.287568    3.079417   -2.004648 O    1452 MOH    -0.6497 ****
9019 HO1   -22.474052    3.941229   -1.623517 H    1452 MOH     0.4215 ****
9020 HC1   -22.528900    1.084716    0.567807 H    1453 MOH     0.0372 ****
9021 C1    -21.497175    0.800983    0.362038 C    1453 MOH     0.1166 ****
9022 HC2   -21.226398   -0.024903    1.018941 H    1453 MOH     0.0372 ****
9023 HC3   -20.848811    1.651773    0.572756 H    1453 MOH     0.0372 ****
9024 O1    -21.359189    0.481733   -0.999849 O    1453 MOH    -0.6497 ****
9025 HO1   -21.655947    1.274551   -1.452398 H    1453 MOH     0.4215 ****
9026 HC1   -17.034835    0.357217   -5.118746 H    1454 MOH     0.0372 ****
9027 C1    -17.020401    1.064712   -5.948182 C    1454 MOH     0.1166 ****
9028 HC2   -18.011134    1.495822   -6.089604 H    1454 MOH     0.0372 ****
9029 HC3   -16.681497    0.571548   -6.858936 H    1454 MOH     0.0372 ****
9030 O1    -16.143406    2.116359   -5.641298 O    1454 MOH    -0.6497 ****
9031 HO1   -15.947107    2.123299   -4.701553 H    1454 MOH     0.4215 ****
9032 HC1   -10.903375   -3.477459    8.210924 H    1455 MOH     0.0372 ****
9033 C1    -10.828320   -2.435609    7.901211 C    1455 MOH     0.1166 ****
9034 HC2    -9.789667   -2.211073    7.657966 H    1455 MOH     0.0372 ****
9035 HC3   -11.190318   -1.834260    8.736304 H    1455 MOH     0.0372 ****
9036 O1    -11.716285   -2.278025    6.824995 O    1455 MOH    -0.6497 ****
9037 HO1   -11.349090   -2.798542    6.107281 H    1455 MOH     0.4215 ****
9038 HC1   -23.238464    4.839375    1.764938 H    1456 MOH     0.0372 ****
9039 C1    -23.478064    4.206590    2.619123 C    1456 MOH     0.1166 ****
9040 HC2   -24.523646    4.331106    2.899845 H    1456 MOH     0.0372 ****
9041 HC3   -22.845866    4.514001    3.452802 H    1456 MOH     0.0372 ****
9042 O1    -23.176110    2.856513    2.303047 O    1456 MOH    -0.6497 ****
9043 HO1   -23.638568    2.583395    1.507551 H    1456 MOH     0.4215 ****
9044 HC1   -25.831921   -3.099013   -7.334819 H    1457 MOH     0.0372 ****
9045 C1    -25.043838   -3.064720   -8.087180 C    1457 MOH     0.1166 ****
9046 HC2   -25.464149   -2.673210   -9.014197 H    1457 MOH     0.0372 ****
9047 HC3   -24.646044   -4.062479   -8.273857 H    1457 MOH     0.0372 ****
9048 O1    -24.037517   -2.164532   -7.737163 O    1457 MOH    -0.6497 ****
9049 HO1   -23.210174   -2.629527   -7.880705 H    1457 MOH     0.4215 ****
9050 HC1   -22.628204   -3.719550  -10.052937 H    1458 MOH     0.0372 ****
9051 C1    -22.198079   -4.289465   -9.228451 C    1458 MOH     0.1166 ****
9052 HC2   -21.422697   -4.933272   -9.643522 H    1458 MOH     0.0372 ****
9053 HC3   -22.943438   -4.938171   -8.768124 H    1458 MOH     0.0372 ****
9054 O1    -21.628811   -3.394993   -8.288706 O    1458 MOH    -0.6497 ****
9055 HO1   -21.214274   -3.934289   -7.612005 H    1458 MOH     0.4215 ****
9056 HC1   -12.280933    4.995734   -7.767568 H    1459 MOH     0.0372 ****
9057 C1    -11.537306    4.474809   -8.370023 C    1459 MOH     0.1166 ****
9058 HC2   -10.621628    5.064320   -8.418106 H    1459 MOH     0.0372 ****
9059 HC3   -11.873324    4.353560   -9.400278 H    1459 MOH     0.0372 ****
9060 O1    -11.198979    3.245982   -7.785953 O    1459 MOH    -0.6497 ****
9061 HO1   -11.902769    2.974497   -7.192690 H    1459 MOH     0.4215 ****
9062 HC1   -12.530348    0.143295   -5.735343 H    1460 MOH     0.0372 ****
9063 C1    -13.467388    0.399267   -6.228197 C    1460 MOH     0.1166 ****
9064 HC2   -14.305700    0.067361   -5.615135 H    1460 MOH     0.0372 ****
9065 HC3   -13.485863   -0.099613   -7.196933 H    1460 MOH     0.0372 ****
9066 O1    -13.497987    1.782820   -6.445278 O    1460 MOH    -0.6497 ****
9067 HO1   -14.414242    2.024095   -6.597306 H    1460 MOH     0.4215 ****
9068 HC1   -22.476939   -0.558892    3.506542 H    1461 MOH     0.0372 ****
9069 C1    -23.486724   -0.159625    3.598466 C    1461 MOH     0.1166 ****
9070 HC2   -24.099293   -0.901004    4.111826 H    1461 MOH     0.0372 ****
9071 HC3   -23.887983    0.032252    2.602860 H    1461 MOH     0.0372 ****
9072 O1    -23.418597    1.029194    4.360727 O    1461 MOH    -0.6497 ****
9073 HO1   -23.084311    1.722400    3.786557 H    1461 MOH     0.4215 ****
9074 HC1   -15.859927   -4.566665   -7.443006 H    1462 MOH     0.0372 ****
9075 C1    -15.554509   -5.546870   -7.809995 C    1462 MOH     0.1166 ****
9076 HC2   -14.605345   -5.467261   -8.339617 H    1462 MOH     0.0372 ****
9077 HC3   -16.321230   -5.939196   -8.476796 H    1462 MOH     0.0372 ****
9078 O1    -15.400934   -6.467469   -6.735899 O    1462 MOH    -0.6497 ****
9079 HO1   -14.551652   -6.901437   -6.844087 H    1462 MOH     0.4215 ****
9080 HC1   -10.018875   -7.214972   -0.770039 H    1463 MOH     0.0372 ****
9081 C1     -9.147653   -6.711602   -1.189354 C    1463 MOH     0.1166 ****
9082 HC2    -9.445566   -5.762425   -1.632710 H    1463 MOH     0.0372 ****
9083 HC3    -8.708867   -7.323158   -1.978485 H    1463 MOH     0.0372 ****
9084 O1     -8.178859   -6.436443   -0.203647 O    1463 MOH    -0.6497 ****
9085 HO1    -7.748733   -7.274576   -0.020506 H    1463 MOH     0.4215 ****
9086 HC1   -26.733165    6.677309    1.930401 H    1464 MOH     0.0372 ****
9087 C1    -25.870604    7.140263    1.450983 C    1464 MOH     0.1166 ****
9088 HC2   -25.083675    7.254980    2.196980 H    1464 MOH     0.0372 ****
9089 HC3   -26.187569    8.132306    1.128542 H    1464 MOH     0.0372 ****
9090 O1    -25.487820    6.352752    0.292035 O    1464 MOH    -0.6497 ****
9091 HO1   -26.181795    6.398884   -0.369110 H    1464 MOH     0.4215 ****
9092 HC1   -20.046872    2.114726    8.191125 H    1465 MOH     0.0372 ****
9093 C1    -19.438922    2.985520    7.942930 C    1465 MOH     0.1166 ****
9094 HC2   -18.389299    2.716076    7.828379 H    1465 MOH     0.0372 ****
9095 HC3   -19.495502    3.707711    8.758224 H    1465 MOH     0.0372 ****
9096 O1    -19.833829    3.547678    6.733071 O    1465 MOH    -0.6497 ****
9097 HO1   -19.552082    2.949186    6.037277 H    1465 MOH     0.4215 ****
9098 HC1   -18.574051   -0.891206  -12.517912 H    1466 MOH     0.0372 ****
9099 C1    -17.650290   -0.703004  -13.065919 C    1466 MOH     0.1166 ****
9100 HC2   -17.059661   -1.617888  -13.028443 H    1466 MOH     0.0372 ****
9101 HC3   -17.127788    0.120433  -12.578723 H    1466 MOH     0.0372 ****
9102 O1    -17.923377   -0.350685  -14.420029 O    1466 MOH    -0.6497 ****
9103 HO1   -17.141645    0.071443  -14.783482 H    1466 MOH     0.4215 ****
9104 HC1   -14.466204    8.364599   -2.496794 H    1467 MOH     0.0372 ****
9105 C1    -15.481186    7.981254   -2.600739 C    1467 MOH     0.1166 ****
9106 HC2   -16.202296    8.798567   -2.579526 H    1467 MOH     0.0372 ****
9107 HC3   -15.716167    7.286415   -1.794637 H    1467 MOH     0.0372 ****
9108 O1    -15.608780    7.269269   -3.783021 O    1467 MOH    -0.6497 ****
9109 HO1   -14.888247    6.636076   -3.814841 H    1467 MOH     0.4215 ****
9110 HC1   -20.987375   -5.629336   -1.607254 H    1468 MOH     0.0372 ****
9111 C1    -20.130587   -5.887349   -2.230922 C    1468 MOH     0.1166 ****
9112 HC2   -19.944680   -5.094122   -2.954292 H    1468 MOH     0.0372 ****
9113 HC3   -20.376538   -6.791210   -2.788122 H    1468 MOH     0.0372 ****
9114 O1    -18.967226   -6.078001   -1.429770 O    1468 MOH    -0.6497 ****
9115 HO1   -18.270942   -6.425828   -1.991213 H    1468 MOH     0.4215 ****
9116 HC1   -14.932703   -5.969407   -2.423962 H    1469 MOH     0.0372 ****
9117 C1    -15.430956   -6.745078   -3.003790 C    1469 MOH     0.1166 ****
9118 HC2   -14.704072   -7.490540   -3.326230 H    1469 MOH     0.0372 ****
9119 HC3   -15.893414   -6.271102   -3.869996 H    1469 MOH     0.0372 ****
9120 O1    -16.406101   -7.375822   -2.206880 O    1469 MOH    -0.6497 ****
9121 HO1   -15.934406   -7.744878   -1.457347 H    1469 MOH     0.4215 ****
9122 HC1   -11.592154    0.082466    4.763071 H    1470 MOH     0.0372 ****
9123 C1    -12.214538    0.976938    4.753879 C    1470 MOH     0.1166 ****
9124 HC2   -11.770555    1.764041    5.363405 H    1470 MOH     0.0372 ****
9125 HC3   -13.186218    0.698921    5.163294 H    1470 MOH     0.0372 ****
9126 O1    -12.394094    1.429686    3.432296 O    1470 MOH    -0.6497 ****
9127 HO1   -11.536729    1.705253    3.099249 H    1470 MOH     0.4215 ****
9128 HC1   -15.608203    5.729356   -6.717515 H    1471 MOH     0.0372 ****
9129 C1    -15.015264    5.390919   -7.566750 C    1471 MOH     0.1166 ****
9130 HC2   -14.648069    4.395201   -7.318555 H    1471 MOH     0.0372 ****
9131 HC3   -14.168291    6.060854   -7.718778 H    1471 MOH     0.0372 ****
9132 O1    -15.819513    5.339888   -8.737012 O    1471 MOH    -0.6497 ****
9133 HO1   -15.412481    4.689548   -9.314718 H    1471 MOH     0.4215 ****
9134 HC1   -19.851727    6.050240   -1.055004 H    1472 MOH     0.0372 ****
9135 C1    -19.670439    5.012064   -0.775696 C    1472 MOH     0.1166 ****
9136 HC2   -20.329773    4.374789   -1.364716 H    1472 MOH     0.0372 ****
9137 HC3   -19.895028    4.857338    0.280014 H    1472 MOH     0.0372 ****
9138 O1    -18.340224    4.616472   -1.016820 O    1472 MOH    -0.6497 ****
9139 HO1   -18.160668    4.724657   -1.953736 H    1472 MOH     0.4215 ****
9140 HC1   -15.963273    0.262095    2.603567 H    1473 MOH     0.0372 ****
9141 C1    -15.509476    1.141462    3.060358 C    1473 MOH     0.1166 ****
9142 HC2   -14.672318    1.458263    2.438104 H    1473 MOH     0.0372 ****
9143 HC3   -15.205790    0.892431    4.077178 H    1473 MOH     0.0372 ****
9144 O1    -16.459794    2.139221    3.025003 O    1473 MOH    -0.6497 ****
9145 HO1   -16.787729    2.194743    2.124149 H    1473 MOH     0.4215 ****
9146 HC1   -24.130470   11.734689    0.274357 H    1474 MOH     0.0372 ****
9147 C1    -25.038065   11.671002    0.873984 C    1474 MOH     0.1166 ****
9148 HC2   -25.648901   10.824295    0.561442 H    1474 MOH     0.0372 ****
9149 HC3   -25.587125   12.603033    0.741755 H    1474 MOH     0.0372 ****
9150 O1    -24.666251   11.487699    2.198395 O    1474 MOH    -0.6497 ****
9151 HO1   -24.139130   10.685083    2.196980 H    1474 MOH     0.4215 ****
9152 HC1    -8.600325    3.581154    7.980407 H    1475 MOH     0.0372 ****
9153 C1     -8.853205    4.445824    8.594176 C    1475 MOH     0.1166 ****
9154 HC2    -8.045492    4.629127    9.301990 H    1475 MOH     0.0372 ****
9155 HC3    -9.771192    4.213122    9.132991 H    1475 MOH     0.0372 ****
9156 O1     -9.045462    5.554218    7.737869 O    1475 MOH    -0.6497 ****
9157 HO1    -9.730777    5.283141    7.122686 H    1475 MOH     0.4215 ****
9158 HC1   -12.340978   -3.678317    4.446287 H    1476 MOH     0.0372 ****
9159 C1    -11.518253   -4.369073    4.261025 C    1476 MOH     0.1166 ****
9160 HC2   -11.242857   -4.247823    3.213800 H    1476 MOH     0.0372 ****
9161 HC3   -11.826558   -5.408882    4.367799 H    1476 MOH     0.0372 ****
9162 O1    -10.428216   -4.058396    5.145616 O    1476 MOH    -0.6497 ****
9163 HO1    -9.817379   -4.798959    5.158344 H    1476 MOH     0.4215 ****
9164 HC1   -16.593740   -2.336813   -4.748929 H    1477 MOH     0.0372 ****
9165 C1    -15.666515   -2.513585   -4.205164 C    1477 MOH     0.1166 ****
9166 HC2   -15.732333   -3.438267   -3.631701 H    1477 MOH     0.0372 ****
9167 HC3   -15.443080   -1.677084   -3.542605 H    1477 MOH     0.0372 ****
9168 O1    -14.663080   -2.615647   -5.135717 O    1477 MOH    -0.6497 ****
9169 HO1   -13.853058   -2.274760   -4.748929 H    1477 MOH     0.4215 ****
9170 HC1   -18.690676   -2.192702  -10.021825 H    1478 MOH     0.0372 ****
9171 C1    -18.410661   -3.101054   -9.487959 C    1478 MOH     0.1166 ****
9172 HC2   -17.602370   -3.596668  -10.025360 H    1478 MOH     0.0372 ****
9173 HC3   -19.241468   -3.806915   -9.464624 H    1478 MOH     0.0372 ****
9174 O1    -17.973029   -2.839775   -8.168498 O    1478 MOH    -0.6497 ****
9175 HO1   -18.320594   -3.544412   -7.616954 H    1478 MOH     0.4215 ****
9176 HC1   -15.000253   -0.491123   11.864545 H    1479 MOH     0.0372 ****
9177 C1    -15.891682    0.135539   11.832725 C    1479 MOH     0.1166 ****
9178 HC2   -16.780224   -0.495205   11.792420 H    1479 MOH     0.0372 ****
9179 HC3   -15.882444    0.753626   10.934699 H    1479 MOH     0.0372 ****
9180 O1    -15.881289    0.983062   12.954196 O    1479 MOH    -0.6497 ****
9181 HO1   -15.125538    1.563183   12.837523 H    1479 MOH     0.4215 ****
9182 HC1   -13.343258    0.770773   10.451038 H    1480 MOH     0.0372 ****
9183 C1    -13.118668    1.836709   10.501243 C    1480 MOH     0.1166 ****
9184 HC2   -13.477780    2.384578    9.630087 H    1480 MOH     0.0372 ****
9185 HC3   -12.032673    1.883249   10.429118 H    1480 MOH     0.0372 ****
9186 O1    -13.479512    2.434793   11.767671 O    1480 MOH    -0.6497 ****
9187 HO1   -13.551681    3.383562   11.641806 H    1480 MOH     0.4215 ****
9188 HC1   -13.068439    0.378038    0.323855 H    1481 MOH     0.0372 ****
9189 C1    -12.405063   -0.443766    0.593262 C    1481 MOH     0.1166 ****
9190 HC2   -11.388927   -0.057563    0.671044 H    1481 MOH     0.0372 ****
9191 HC3   -12.418920   -1.226378   -0.165463 H    1481 MOH     0.0372 ****
9192 O1    -12.783228   -0.870794    1.880197 O    1481 MOH    -0.6497 ****
9193 HO1   -12.729534   -0.101654    2.451539 H    1481 MOH     0.4215 ****
9194 HC1   -18.582134   -0.658913   -4.553768 H    1482 MOH     0.0372 ****
9195 C1    -19.212600   -0.972447   -3.722210 C    1482 MOH     0.1166 ****
9196 HC2   -20.188900   -1.285166   -4.092734 H    1482 MOH     0.0372 ****
9197 HC3   -19.382919   -0.145336   -3.032074 H    1482 MOH     0.0372 ****
9198 O1    -18.610424   -2.026545   -3.026417 O    1482 MOH    -0.6497 ****
9199 HO1   -19.261098   -2.380904   -2.416891 H    1482 MOH     0.4215 ****
9200 HC1   -15.919972    4.073501   -1.409971 H    1483 MOH     0.0372 ****
9201 C1    -15.263525    4.349069   -0.584777 C    1483 MOH     0.1166 ****
9202 HC2   -15.810275    4.313143    0.358503 H    1483 MOH     0.0372 ****
9203 HC3   -14.917114    5.371731   -0.735391 H    1483 MOH     0.0372 ****
9204 O1    -14.144620    3.477051   -0.519724 O    1483 MOH    -0.6497 ****
9205 HO1   -13.539557    3.803649    0.150614 H    1483 MOH     0.4215 ****
9206 HC1   -12.143524    8.788361    6.357597 H    1484 MOH     0.0372 ****
9207 C1    -12.455293    8.369498    7.315019 C    1484 MOH     0.1166 ****
9208 HC2   -12.982414    9.115776    7.907575 H    1484 MOH     0.0372 ****
9209 HC3   -11.562709    8.035959    7.843228 H    1484 MOH     0.0372 ****
9210 O1    -13.269934    7.255389    7.088038 O    1484 MOH    -0.6497 ****
9211 HO1   -13.955826    7.496663    6.462249 H    1484 MOH     0.4215 ****
9212 HC1   -19.463748   14.182546   -1.361888 H    1485 MOH     0.0372 ****
9213 C1    -20.371342   14.562217   -1.831407 C    1485 MOH     0.1166 ****
9214 HC2   -20.240861   14.542212   -2.913987 H    1485 MOH     0.0372 ****
9215 HC3   -20.514525   15.593043   -1.509673 H    1485 MOH     0.0372 ****
9216 O1    -21.511609   13.768990   -1.457347 O    1485 MOH    -0.6497 ****
9217 HO1   -22.284681   14.273993   -1.719684 H    1485 MOH     0.4215 ****
9218 HC1   -26.581899   -5.994310   -1.356938 H    1486 MOH     0.0372 ****
9219 C1    -25.938154   -5.210065   -1.753625 C    1486 MOH     0.1166 ****
9220 HC2   -25.904090   -4.408673   -1.016113 H    1486 MOH     0.0372 ****
9221 HC3   -26.337103   -4.769973   -2.668621 H    1486 MOH     0.0372 ****
9222 O1    -24.626414   -5.674651   -1.984142 O    1486 MOH    -0.6497 ****
9223 HO1   -24.184164   -4.887549   -2.309411 H    1486 MOH     0.4215 ****
9224 HC1   -17.306190    5.712618    5.149858 H    1487 MOH     0.0372 ****
9225 C1    -16.724221    5.955118    4.260318 C    1487 MOH     0.1166 ****
9226 HC2   -16.760594    5.133314    3.545433 H    1487 MOH     0.0372 ****
9227 HC3   -15.697115    6.098413    4.597608 H    1487 MOH     0.0372 ****
9228 O1    -17.190142    7.199459    3.728574 O    1487 MOH    -0.6497 ****
9229 HO1   -16.774450    7.876743    4.266682 H    1487 MOH     0.4215 ****
9230 HC1   -19.811890    1.146361    2.821356 H    1488 MOH     0.0372 ****
9231 C1    -19.649077    0.922233    3.875652 C    1488 MOH     0.1166 ****
9232 HC2   -19.081542   -0.004491    3.967576 H    1488 MOH     0.0372 ****
9233 HC3   -20.632882    0.804657    4.329615 H    1488 MOH     0.0372 ****
9234 O1    -18.956257    1.998784    4.467500 O    1488 MOH    -0.6497 ****
9235 HO1   -18.117944    2.089415    4.009295 H    1488 MOH     0.4215 ****
9236 HC1   -20.089595    1.041441   -6.514575 H    1489 MOH     0.0372 ****
9237 C1    -20.222963    0.018779   -6.867421 C    1489 MOH     0.1166 ****
9238 HC2   -21.221779   -0.058788   -7.295928 H    1489 MOH     0.0372 ****
9239 HC3   -20.149640   -0.698105   -6.050006 H    1489 MOH     0.0372 ****
9240 O1    -19.302667   -0.258421   -7.879291 O    1489 MOH    -0.6497 ****
9241 HO1   -19.186620   -1.206374   -7.971215 H    1489 MOH     0.4215 ****
9242 HC1   -17.902593   -8.233143   -7.556850 H    1490 MOH     0.0372 ****
9243 C1    -18.639291   -7.887357   -6.832066 C    1490 MOH     0.1166 ****
9244 HC2   -18.910069   -8.695280   -6.151122 H    1490 MOH     0.0372 ****
9245 HC3   -19.548041   -7.587703   -7.352496 H    1490 MOH     0.0372 ****
9246 O1    -18.199351   -6.805907   -6.037985 O    1490 MOH    -0.6497 ****
9247 HO1   -17.251919   -6.874493   -5.902220 H    1490 MOH     0.4215 ****
9248 HC1   -16.954006    8.322141   -7.204711 H    1491 MOH     0.0372 ****
9249 C1    -17.801556    7.657513   -7.035006 C    1491 MOH     0.1166 ****
9250 HC2   -18.667004    8.301321   -6.878735 H    1491 MOH     0.0372 ****
9251 HC3   -17.568884    7.055755   -6.156779 H    1491 MOH     0.0372 ****
9252 O1    -17.934924    6.955734   -8.250522 O    1491 MOH    -0.6497 ****
9253 HO1   -17.089106    6.549936   -8.455583 H    1491 MOH     0.4215 ****
9254 HC1   -15.536611    3.704445    7.376538 H    1492 MOH     0.0372 ****
9255 C1    -15.473103    2.781396    6.800246 C    1492 MOH     0.1166 ****
9256 HC2   -14.441378    2.577272    6.514575 H    1492 MOH     0.0372 ****
9257 HC3   -16.090290    2.893256    5.909291 H    1492 MOH     0.0372 ****
9258 O1    -15.990986    1.728115    7.565335 O    1492 MOH    -0.6497 ****
9259 HO1   -15.740993    0.903454    7.141071 H    1492 MOH     0.4215 ****
9260 HC1   -27.587643    3.012056   -1.105915 H    1493 MOH     0.0372 ****
9261 C1    -27.753920    4.082483   -0.987121 C    1493 MOH     0.1166 ****
9262 HC2   -27.400582    4.403366   -0.007071 H    1493 MOH     0.0372 ****
9263 HC3   -28.820864    4.295589   -1.059246 H    1493 MOH     0.0372 ****
9264 O1    -27.066873    4.796917   -1.996870 O    1493 MOH    -0.6497 ****
9265 HO1   -27.157517    4.267011   -2.791658 H    1493 MOH     0.4215 ****
9266 HC1   -20.924444    9.328065   -3.954848 H    1494 MOH     0.0372 ****
9267 C1    -20.053222    8.672827   -3.973940 C    1494 MOH     0.1166 ****
9268 HC2   -20.053800    8.101279   -4.901664 H    1494 MOH     0.0372 ****
9269 HC3   -20.080935    7.963699   -3.145918 H    1494 MOH     0.0372 ****
9270 O1    -18.874850    9.457480   -3.900401 O    1494 MOH    -0.6497 ****
9271 HO1   -18.904295    9.968198   -3.087936 H    1494 MOH     0.4215 ****
9272 HC1   -25.109656    2.562983   -1.429770 H    1495 MOH     0.0372 ****
9273 C1    -24.842343    1.558284   -1.100966 C    1495 MOH     0.1166 ****
9274 HC2   -23.897798    1.268836   -1.561292 H    1495 MOH     0.0372 ****
9275 HC3   -25.605023    0.844666   -1.410678 H    1495 MOH     0.0372 ****
9276 O1    -24.674911    1.566040    0.328097 O    1495 MOH    -0.6497 ****
9277 HO1   -25.503409    1.753835    0.774989 H    1495 MOH     0.4215 ****
9278 HC1    -7.975055    2.378455    5.932626 H    1496 MOH     0.0372 ****
9279 C1     -7.116535    2.740163    5.366940 C    1496 MOH     0.1166 ****
9280 HC2    -7.464677    3.259454    4.474572 H    1496 MOH     0.0372 ****
9281 HC3    -6.487223    1.899579    5.073491 H    1496 MOH     0.0372 ****
9282 O1     -6.367134    3.629736    6.162436 O    1496 MOH    -0.6497 ****
9283 HO1    -6.199703    3.211281    7.010257 H    1496 MOH     0.4215 ****
9284 HC1   -13.950053    1.447240   -9.405227 H    1497 MOH     0.0372 ****
9285 C1    -14.874390    1.962449   -9.666857 C    1497 MOH     0.1166 ****
9286 HC2   -15.587418    1.915501   -8.843078 H    1497 MOH     0.0372 ****
9287 HC3   -15.310290    1.516234  -10.559933 H    1497 MOH     0.0372 ****
9288 O1    -14.636522    3.311710   -9.946164 O    1497 MOH    -0.6497 ****
9289 HO1   -14.131918    3.341920  -10.762165 H    1497 MOH     0.4215 ****
9290 HC1   -22.228101    8.640575    0.647002 H    1498 MOH     0.0372 ****
9291 C1    -22.598760    8.243758    1.591697 C    1498 MOH     0.1166 ****
9292 HC2   -21.744281    8.120875    2.257085 H    1498 MOH     0.0372 ****
9293 HC3   -23.070455    7.268044    1.475732 H    1498 MOH     0.0372 ****
9294 O1    -23.453815    9.179055    2.153847 O    1498 MOH    -0.6497 ****
9295 HO1   -23.269063    9.180688    3.095713 H    1498 MOH     0.4215 ****
9296 HC1   -22.344148   -4.413980   12.798633 H    1499 MOH     0.0372 ****
9297 C1    -21.449833   -4.856522   13.238453 C    1499 MOH     0.1166 ****
9298 HC2   -21.384015   -4.583403   14.291335 H    1499 MOH     0.0372 ****
9299 HC3   -20.559559   -4.486649   12.729336 H    1499 MOH     0.0372 ****
9300 O1    -21.501217   -6.269061   13.122487 O    1499 MOH    -0.6497 ****
9301 HO1   -20.595932   -6.577288   13.210876 H    1499 MOH     0.4215 ****
9302 HC1   -23.690529   -8.772439   -8.865705 H    1500 MOH     0.0372 ****
9303 C1    -23.176687   -8.463395   -7.955659 C    1500 MOH     0.1166 ****
9304 HC2   -22.093578   -8.489523   -8.071624 H    1500 MOH     0.0372 ****
9305 HC3   -23.479796   -9.102712   -7.125515 H    1500 MOH     0.0372 ****
9306 O1    -23.616051   -7.205991   -7.672816 O    1500 MOH    -0.6497 ****
9307 HO1   -23.948027   -6.843874   -8.498009 H    1500 MOH     0.4215 ****
9308 HC1   -22.939974    3.965724    6.385174 H    1501 MOH     0.0372 ****
9309 C1    -23.006369    3.705262    7.441592 C    1501 MOH     0.1166 ****
9310 HC2   -22.898405    2.627078    7.565335 H    1501 MOH     0.0372 ****
9311 HC3   -23.990174    4.020021    7.790195 H    1501 MOH     0.0372 ****
9312 O1    -22.022564    4.424187    8.164962 O    1501 MOH    -0.6497 ****
9313 HO1   -21.199840    4.315184    7.682008 H    1501 MOH     0.4215 ****
9314 HC1   -15.393428    6.526665   11.233805 H    1502 MOH     0.0372 ****
9315 C1    -14.955797    5.623212   10.808834 C    1502 MOH     0.1166 ****
9316 HC2   -14.712155    5.818355    9.765144 H    1502 MOH     0.0372 ****
9317 HC3   -15.661319    4.796917   10.902172 H    1502 MOH     0.0372 ****
9318 O1    -13.819572    5.325599   11.556246 O    1502 MOH    -0.6497 ****
9319 HO1   -13.191992    6.051464   11.508163 H    1502 MOH     0.4215 ****
9320 HC1   -22.230410   10.054339   -2.428205 H    1503 MOH     0.0372 ****
9321 C1    -21.664030   10.359300   -1.547857 C    1503 MOH     0.1166 ****
9322 HC2   -21.278360    9.465645   -1.056418 H    1503 MOH     0.0372 ****
9323 HC3   -22.318167   10.883083   -0.851357 H    1503 MOH     0.0372 ****
9324 O1    -20.569373   11.173756   -1.953029 O    1503 MOH    -0.6497 ****
9325 HO1   -20.920402   12.049040   -2.129806 H    1503 MOH     0.4215 ****
9326 HC1   -30.313891    0.649523   -3.031367 H    1504 MOH     0.0372 ****
9327 C1    -29.755016    1.281900   -2.341938 C    1504 MOH     0.1166 ****
9328 HC2   -29.709983    2.282516   -2.772566 H    1504 MOH     0.0372 ****
9329 HC3   -28.741767    0.887532   -2.261328 H    1504 MOH     0.0372 ****
9330 O1    -30.420124    1.294147   -1.053589 O    1504 MOH    -0.6497 ****
9331 HO1   -29.953047    0.676059   -0.487904 H    1504 MOH     0.4215 ****
9332 HC1   -21.838967   -5.563608   -5.132181 H    1505 MOH     0.0372 ****
9333 C1    -22.721158   -4.980221   -4.871259 C    1505 MOH     0.1166 ****
9334 HC2   -22.416894   -3.981646   -4.560132 H    1505 MOH     0.0372 ****
9335 HC3   -23.256362   -5.470119   -4.058086 H    1505 MOH     0.0372 ****
9336 O1    -23.542150   -4.925107   -6.038692 O    1505 MOH    -0.6497 ****
9337 HO1   -23.632794   -5.813864   -6.391538 H    1505 MOH     0.4215 ****
9338 HC1   -20.108648   -3.700771   -0.065761 H    1506 MOH     0.0372 ****
9339 C1    -20.420417   -2.657288   -0.101116 C    1506 MOH     0.1166 ****
9340 HC2   -19.614436   -2.000008    0.226981 H    1506 MOH     0.0372 ****
9341 HC3   -21.263349   -2.533997    0.577706 H    1506 MOH     0.0372 ****
9342 O1    -20.873637   -2.311094   -1.395122 O    1506 MOH    -0.6497 ****
9343 HO1   -21.084947   -1.375388   -1.365423 H    1506 MOH     0.4215 ****
9344 HC1   -13.412540    4.312735    7.431692 H    1507 MOH     0.0372 ****
9345 C1    -12.487047    4.612389    7.925253 C    1507 MOH     0.1166 ****
9346 HC2   -12.043065    3.758334    8.437198 H    1507 MOH     0.0372 ****
9347 HC3   -12.732998    5.364383    8.674786 H    1507 MOH     0.0372 ****
9348 O1    -11.604856    5.111677    6.899241 O    1507 MOH    -0.6497 ****
9349 HO1   -11.795382    6.049831    6.824287 H    1507 MOH     0.4215 ****
9350 HC1   -24.383349   -4.529923    0.750947 H    1508 MOH     0.0372 ****
9351 C1    -23.612009   -4.823045    1.463711 C    1508 MOH     0.1166 ****
9352 HC2   -22.714230   -5.079425    0.900854 H    1508 MOH     0.0372 ****
9353 HC3   -23.942254   -5.711394    2.002526 H    1508 MOH     0.0372 ****
9354 O1    -23.351624   -3.745678    2.372343 O    1508 MOH    -0.6497 ****
9355 HO1   -24.017887   -3.770581    3.063186 H    1508 MOH     0.4215 ****
9356 HC1   -28.812781   -2.491539    0.300520 H    1509 MOH     0.0372 ****
9357 C1    -28.225038   -1.575838    0.362038 C    1509 MOH     0.1166 ****
9358 HC2   -27.759116   -1.365182   -0.601041 H    1509 MOH     0.0372 ****
9359 HC3   -27.436378   -1.724441    1.098844 H    1509 MOH     0.0372 ****
9360 O1    -29.006770   -0.451114    0.737512 O    1509 MOH    -0.6497 ****
9361 HO1   -29.406874   -0.615230    1.594526 H    1509 MOH     0.4215 ****
9362 HC1   -15.077618    0.115943   -2.149605 H    1510 MOH     0.0372 ****
9363 C1    -14.295885    0.789144   -2.501037 C    1510 MOH     0.1166 ****
9364 HC2   -13.736433    0.354359   -3.329059 H    1510 MOH     0.0372 ****
9365 HC3   -13.610571    0.994085   -1.679379 H    1510 MOH     0.0372 ****
9366 O1    -14.869772    1.988577   -2.946514 O    1510 MOH    -0.6497 ****
9367 HO1   -14.674627    2.631977   -2.260621 H    1510 MOH     0.4215 ****
9368 HC1   -10.177761   22.856842   -1.878076 H    1511 MOH     0.0372 ****
9369 C1    -11.214105   22.995646   -1.571192 C    1511 MOH     0.1166 ****
9370 HC2   -11.777599   23.359804   -2.429619 H    1511 MOH     0.0372 ****
9371 HC3   -11.283965   23.745599   -0.782767 H    1511 MOH     0.0372 ****
9372 O1    -11.739494   21.752939   -1.153999 O    1511 MOH    -0.6497 ****
9373 HO1   -12.502174   21.905215   -0.591849 H    1511 MOH     0.4215 ****
9374 HC1   -15.679332   12.315871    2.213244 H    1512 MOH     0.0372 ****
9375 C1    -16.480117   11.921912    2.839033 C    1512 MOH     0.1166 ****
9376 HC2   -17.045920   11.191555    2.259913 H    1512 MOH     0.0372 ****
9377 HC3   -17.152730   12.698808    3.200365 H    1512 MOH     0.0372 ****
9378 O1    -15.983018   11.180941    3.883430 O    1512 MOH    -0.6497 ****
9379 HO1   -15.438577   11.776983    4.402447 H    1512 MOH     0.4215 ****
9380 HC1    -3.569988   13.554905    6.719636 H    1513 MOH     0.0372 ****
9381 C1     -3.508789   14.334659    7.477654 C    1513 MOH     0.1166 ****
9382 HC2    -3.148522   13.888852    8.405378 H    1513 MOH     0.0372 ****
9383 HC3    -4.501831   14.760054    7.623318 H    1513 MOH     0.0372 ****
9384 O1     -2.637567   15.357321    7.049854 O    1513 MOH    -0.6497 ****
9385 HO1    -1.750757   14.997246    6.983386 H    1513 MOH     0.4215 ****
9386 HC1     2.688489   18.304057    0.939038 H    1514 MOH     0.0372 ****
9387 C1      3.122079   18.497159    1.919795 C    1514 MOH     0.1166 ****
9388 HC2     3.407868   19.547990    1.970707 H    1514 MOH     0.0372 ****
9389 HC3     4.010044   17.877846    2.046367 H    1514 MOH     0.0372 ****
9390 O1      2.167719   18.182399    2.927422 O    1514 MOH    -0.6497 ****
9391 HO1     2.368637   17.290785    3.220164 H    1514 MOH     0.4215 ****
9392 HC1    -3.948729    7.450368   -6.693473 H    1515 MOH     0.0372 ****
9393 C1     -4.135791    6.464448   -6.268502 C    1515 MOH     0.1166 ****
9394 HC2    -4.527812    6.559162   -5.255925 H    1515 MOH     0.0372 ****
9395 HC3    -3.178544    5.948014   -6.199912 H    1515 MOH     0.0372 ****
9396 O1     -4.976990    5.660607   -7.117737 O    1515 MOH    -0.6497 ****
9397 HO1    -5.692905    5.314413   -6.580336 H    1515 MOH     0.4215 ****
9398 HC1    -9.128139   21.405519    2.790950 H    1516 MOH     0.0372 ****
9399 C1     -8.524230   21.957063    3.511492 C    1516 MOH     0.1166 ****
9400 HC2    -7.712476   21.321828    3.865045 H    1516 MOH     0.0372 ****
9401 HC3    -9.172595   22.242837    4.340221 H    1516 MOH     0.0372 ****
9402 O1     -8.019626   23.080970    2.856004 O    1516 MOH    -0.6497 ****
9403 HO1    -7.206717   23.342657    3.295117 H    1516 MOH     0.4215 ****
9404 HC1    -2.423947   14.998062   -9.670392 H    1517 MOH     0.0372 ****
9405 C1     -3.216072   14.465707   -9.144305 C    1517 MOH     0.1166 ****
9406 HC2    -3.188936   14.723311   -8.085766 H    1517 MOH     0.0372 ****
9407 HC3    -3.050372   13.398137   -9.286433 H    1517 MOH     0.0372 ****
9408 O1     -4.444673   14.881303   -9.700091 O    1517 MOH    -0.6497 ****
9409 HO1    -5.139226   14.522453   -9.142184 H    1517 MOH     0.4215 ****
9410 HC1    -1.727663   22.889094  -10.789743 H    1518 MOH     0.0372 ****
9411 C1     -1.190150   23.231614  -11.674333 C    1518 MOH     0.1166 ****
9412 HC2    -1.518085   22.657617  -12.541246 H    1518 MOH     0.0372 ****
9413 HC3    -0.130712   23.047086  -11.496142 H    1518 MOH     0.0372 ****
9414 O1     -1.450535   24.612310  -11.943034 O    1518 MOH    -0.6497 ****
9415 HO1    -1.191304   24.817250  -12.843888 H    1518 MOH     0.4215 ****
9416 HC1   -11.066304   16.084003    7.175719 H    1519 MOH     0.0372 ****
9417 C1    -12.086482   15.791289    7.423914 C    1519 MOH     0.1166 ****
9418 HC2   -12.247562   15.848852    8.499423 H    1519 MOH     0.0372 ****
9419 HC3   -12.294905   14.769035    7.107130 H    1519 MOH     0.0372 ****
9420 O1    -12.972714   16.683720    6.822873 O    1519 MOH    -0.6497 ****
9421 HO1   -12.521226   17.060125    6.063440 H    1519 MOH     0.4215 ****
9422 HC1     1.641176   21.056875   -2.147483 H    1520 MOH     0.0372 ****
9423 C1      1.689673   19.969302   -2.198395 C    1520 MOH     0.1166 ****
9424 HC2     1.311509   19.614534   -3.156525 H    1520 MOH     0.0372 ****
9425 HC3     1.082878   19.522678   -1.410678 H    1520 MOH     0.0372 ****
9426 O1      3.026239   19.534926   -2.124856 O    1520 MOH    -0.6497 ****
9427 HO1     2.993908   18.575542   -2.103643 H    1520 MOH     0.4215 ****
9428 HC1    -7.269071   20.032172   -7.720899 H    1521 MOH     0.0372 ****
9429 C1     -7.223460   19.577383   -8.710849 C    1521 MOH     0.1166 ****
9430 HC2    -6.306050   18.998487   -8.819743 H    1521 MOH     0.0372 ****
9431 HC3    -7.233852   20.355096   -9.473817 H    1521 MOH     0.0372 ****
9432 O1     -8.326776   18.740883   -8.927930 O    1521 MOH    -0.6497 ****
9433 HO1    -8.067546   17.853351   -8.670544 H    1521 MOH     0.4215 ****
9434 HC1     0.838082   15.475305   -9.225622 H    1522 MOH     0.0372 ****
9435 C1      1.036690   16.435913   -8.751154 C    1522 MOH     0.1166 ****
9436 HC2     2.101324   16.653101   -8.834592 H    1522 MOH     0.0372 ****
9437 HC3     0.807482   16.400803   -7.686251 H    1522 MOH     0.0372 ****
9438 O1      0.243411   17.431630   -9.402399 O    1522 MOH    -0.6497 ****
9439 HO1     0.290754   18.207710   -8.838835 H    1522 MOH     0.4215 ****
9440 HC1   -16.467415   18.870706    3.379970 H    1523 MOH     0.0372 ****
9441 C1    -15.427030   18.898058    3.053994 C    1523 MOH     0.1166 ****
9442 HC2   -14.842752   18.258333    3.716553 H    1523 MOH     0.0372 ****
9443 HC3   -15.085816   19.931743    3.107734 H    1523 MOH     0.0372 ****
9444 O1    -15.360058   18.415917    1.730997 O    1523 MOH    -0.6497 ****
9445 HO1   -15.954728   17.663107    1.687157 H    1523 MOH     0.4215 ****
9446 HC1   -13.587015   14.188506   -0.779939 H    1524 MOH     0.0372 ****
9447 C1    -12.672492   14.494692   -1.287642 C    1524 MOH     0.1166 ****
9448 HC2   -12.077244   15.149114   -0.650538 H    1524 MOH     0.0372 ****
9449 HC3   -12.947888   15.040928   -2.189910 H    1524 MOH     0.0372 ****
9450 O1    -11.970434   13.355271   -1.685743 O    1524 MOH    -0.6497 ****
9451 HO1   -11.035704   13.554088   -1.595940 H    1524 MOH     0.4215 ****
9452 HC1   -16.641198   13.850885   -5.635641 H    1525 MOH     0.0372 ****
9453 C1    -16.598474   14.092568   -4.573567 C    1525 MOH     0.1166 ****
9454 HC2   -15.561553   14.030514   -4.242641 H    1525 MOH     0.0372 ****
9455 HC3   -17.196031   13.390789   -3.991618 H    1525 MOH     0.0372 ****
9456 O1    -17.032064   15.386306   -4.304159 O    1525 MOH    -0.6497 ****
9457 HO1   -17.801672   15.577775   -4.845096 H    1525 MOH     0.4215 ****
9458 HC1   -19.244470   17.788439    2.079601 H    1526 MOH     0.0372 ****
9459 C1    -19.679215   16.902949    2.542756 C    1526 MOH     0.1166 ****
9460 HC2   -20.091443   16.228115    1.792515 H    1526 MOH     0.0372 ****
9461 HC3   -20.501362   17.189131    3.199658 H    1526 MOH     0.0372 ****
9462 O1    -18.773930   16.200354    3.338251 O    1526 MOH    -0.6497 ****
9463 HO1   -19.300473   15.482653    3.698875 H    1526 MOH     0.4215 ****
9464 HC1    -5.655377   23.346740   -0.151321 H    1527 MOH     0.0372 ****
9465 C1     -6.321062   24.205694   -0.066468 C    1527 MOH     0.1166 ****
9466 HC2    -7.363179   23.885628   -0.073539 H    1527 MOH     0.0372 ****
9467 HC3    -6.185962   24.830314   -0.948938 H    1527 MOH     0.0372 ****
9468 O1     -6.095318   25.002595    1.137027 O    1527 MOH    -0.6497 ****
9469 HO1    -6.168064   24.435538    1.907067 H    1527 MOH     0.4215 ****
9470 HC1    -5.580899   12.692684    8.798530 H    1528 MOH     0.0372 ****
9471 C1     -5.281254   11.645527    8.783680 C    1528 MOH     0.1166 ****
9472 HC2    -4.647323   11.456917    7.916767 H    1528 MOH     0.0372 ****
9473 HC3    -6.149011   10.991514    8.704484 H    1528 MOH     0.0372 ****
9474 O1     -4.576309   11.334442    9.977277 O    1528 MOH    -0.6497 ****
9475 HO1    -4.142142   10.486102    9.858483 H    1528 MOH     0.4215 ****
9476 HC1   -13.331826   15.960304   -5.248854 H    1529 MOH     0.0372 ****
9477 C1    -13.872226   16.829872   -5.622206 C    1529 MOH     0.1166 ****
9478 HC2   -14.315631   16.500416   -6.561951 H    1529 MOH     0.0372 ****
9479 HC3   -13.149383   17.632897   -5.768577 H    1529 MOH     0.0372 ****
9480 O1    -14.863536   17.168310   -4.628721 O    1529 MOH    -0.6497 ****
9481 HO1   -15.499199   16.454284   -4.545990 H    1529 MOH     0.4215 ****
9482 HC1   -14.888362    9.188281   -9.557963 H    1530 MOH     0.0372 ****
9483 C1    -14.475557   10.195838   -9.594732 C    1530 MOH     0.1166 ****
9484 HC2   -14.561005   10.666548   -8.615389 H    1530 MOH     0.0372 ****
9485 HC3   -15.052330   10.783715  -10.308910 H    1530 MOH     0.0372 ****
9486 O1    -13.136104   10.140316  -10.026067 O    1530 MOH    -0.6497 ****
9487 HO1   -13.102618    9.479770  -10.721860 H    1530 MOH     0.4215 ****
9488 HC1    -8.714756   27.600687    2.582354 H    1531 MOH     0.0372 ****
9489 C1     -9.169131   27.898708    1.637659 C    1531 MOH     0.1166 ****
9490 HC2   -10.249930   27.763986    1.685742 H    1531 MOH     0.0372 ****
9491 HC3    -8.746510   27.274088    0.849942 H    1531 MOH     0.0372 ****
9492 O1     -8.887384   29.256134    1.378151 O    1531 MOH    -0.6497 ****
9493 HO1    -9.157006   29.450460    0.477297 H    1531 MOH     0.4215 ****
9494 HC1    -4.907131   13.808427    1.374615 H    1532 MOH     0.0372 ****
9495 C1     -5.047427   13.654109    0.305470 C    1532 MOH     0.1166 ****
9496 HC2    -5.243726   14.608594   -0.183848 H    1532 MOH     0.0372 ****
9497 HC3    -5.881698   12.975192    0.129400 H    1532 MOH     0.0372 ****
9498 O1     -3.871942   13.099708   -0.246073 O    1532 MOH    -0.6497 ****
9499 HO1    -3.225310   12.998871    0.456084 H    1532 MOH     0.4215 ****
9500 HC1    -2.143933   21.844794    2.665085 H    1533 MOH     0.0372 ****
9501 C1     -1.661268   20.878879    2.518007 C    1533 MOH     0.1166 ****
9502 HC2    -2.434340   20.124844    2.370222 H    1533 MOH     0.0372 ****
9503 HC3    -1.096619   20.636380    3.417447 H    1533 MOH     0.0372 ****
9504 O1     -0.753096   20.906640    1.395122 O    1533 MOH    -0.6497 ****
9505 HO1    -0.041800   21.510847    1.624224 H    1533 MOH     0.4215 ****
9506 HC1    -7.450936   13.602261   -5.994144 H    1534 MOH     0.0372 ****
9507 C1     -7.612017   12.589397   -5.625742 C    1534 MOH     0.1166 ****
9508 HC2    -8.363150   12.634305   -4.838025 H    1534 MOH     0.0372 ****
9509 HC3    -6.687102   12.188906   -5.210670 H    1534 MOH     0.0372 ****
9510 O1     -8.063505   11.742690   -6.682159 O    1534 MOH    -0.6497 ****
9511 HO1    -7.658782   10.884553   -6.532253 H    1534 MOH     0.4215 ****
9512 HC1     0.420657   25.116496   10.801056 H    1535 MOH     0.0372 ****
9513 C1     -0.290638   24.290610   10.790449 C    1535 MOH     0.1166 ****
9514 HC2     0.071360   23.559437   10.067079 H    1535 MOH     0.0372 ****
9515 HC3    -1.279639   24.662932   10.520335 H    1535 MOH     0.0372 ****
9516 O1     -0.354147   23.717021   12.075262 O    1535 MOH    -0.6497 ****
9517 HO1    -0.630120   24.400837   12.689738 H    1535 MOH     0.4215 ****
9518 HC1    -3.649662   26.646203   -6.206984 H    1536 MOH     0.0372 ****
9519 C1     -4.230476   27.027506   -5.366941 C    1536 MOH     0.1166 ****
9520 HC2    -3.933141   28.034655   -5.074906 H    1536 MOH     0.0372 ****
9521 HC3    -4.022630   26.372268   -4.520534 H    1536 MOH     0.0372 ****
9522 O1     -5.609766   26.983824   -5.651905 O    1536 MOH    -0.6497 ****
9523 HO1    -6.015066   26.308989   -5.102483 H    1536 MOH     0.4215 ****
9524 HC1   -15.071960   16.289352    4.818932 H    1537 MOH     0.0372 ****
9525 C1    -15.463403   15.520212    4.154252 C    1537 MOH     0.1166 ****
9526 HC2   -14.963995   15.554097    3.186223 H    1537 MOH     0.0372 ****
9527 HC3   -16.534965   15.682695    4.029801 H    1537 MOH     0.0372 ****
9528 O1    -15.322530   14.253418    4.739029 O    1537 MOH    -0.6497 ****
9529 HO1   -15.768822   14.253009    5.588265 H    1537 MOH     0.4215 ****
9530 HC1    -4.717183   17.648410   -0.429921 H    1538 MOH     0.0372 ****
9531 C1     -5.780662   17.849268   -0.561443 C    1538 MOH     0.1166 ****
9532 HC2    -6.362631   16.928260   -0.534573 H    1538 MOH     0.0372 ****
9533 HC3    -5.945784   18.319979   -1.530886 H    1538 MOH     0.0372 ****
9534 O1     -6.230995   18.739658    0.417900 O    1538 MOH    -0.6497 ****
9535 HO1    -6.120721   19.634130    0.087681 H    1538 MOH     0.4215 ****
9536 HC1    -1.004243   20.575959   -3.226528 H    1539 MOH     0.0372 ****
9537 C1     -1.408388   20.921745   -4.177587 C    1539 MOH     0.1166 ****
9538 HC2    -2.341386   20.398371   -4.389719 H    1539 MOH     0.0372 ****
9539 HC3    -0.687278   20.776817   -4.981567 H    1539 MOH     0.0372 ****
9540 O1     -1.654917   22.287744   -4.023438 O    1539 MOH    -0.6497 ****
9541 HO1    -0.830461   22.743349   -3.835347 H    1539 MOH     0.4215 ****
9542 HC1    -5.806643   21.247935   -5.690088 H    1540 MOH     0.0372 ****
9543 C1     -6.043934   20.961345   -4.664784 C    1540 MOH     0.1166 ****
9544 HC2    -5.281831   20.298758   -4.255369 H    1540 MOH     0.0372 ****
9545 HC3    -6.997139   20.432664   -4.683876 H    1540 MOH     0.0372 ****
9546 O1     -6.145547   22.087702   -3.826862 O    1540 MOH    -0.6497 ****
9547 HO1    -5.371898   22.644145   -3.946363 H    1540 MOH     0.4215 ****
9548 HC1     1.235299   22.463291   -4.893179 H    1541 MOH     0.0372 ****
9549 C1      1.655610   23.346740   -4.412346 C    1541 MOH     0.1166 ****
9550 HC2     1.909066   24.088527   -5.169658 H    1541 MOH     0.0372 ****
9551 HC3     2.542420   23.063824   -3.845954 H    1541 MOH     0.0372 ****
9552 O1      0.650443   23.843170   -3.589274 O    1541 MOH    -0.6497 ****
9553 HO1     1.006668   24.039537   -2.720240 H    1541 MOH     0.4215 ****
9554 HC1    -4.413496   24.771118    7.682715 H    1542 MOH     0.0372 ****
9555 C1     -4.456220   25.645178    7.032884 C    1542 MOH     0.1166 ****
9556 HC2    -3.655436   26.345324    7.271179 H    1542 MOH     0.0372 ****
9557 HC3    -5.395569   26.161204    7.228045 H    1542 MOH     0.0372 ****
9558 O1     -4.455643   25.290818    5.641298 O    1542 MOH    -0.6497 ****
9559 HO1    -4.346524   26.083228    5.110260 H    1542 MOH     0.4215 ****
9560 HC1   -10.099819   20.501658   -3.703118 H    1543 MOH     0.0372 ****
9561 C1    -10.682366   19.628823   -3.407548 C    1543 MOH     0.1166 ****
9562 HC2   -10.346348   18.713938   -3.894744 H    1543 MOH     0.0372 ****
9563 HC3   -11.702544   19.808860   -3.744838 H    1543 MOH     0.0372 ****
9564 O1    -10.689294   19.481853   -2.004648 O    1543 MOH    -0.6497 ****
9565 HO1   -10.875778   20.343666   -1.623517 H    1543 MOH     0.4215 ****
9566 HC1   -10.930626   17.487152    0.567807 H    1544 MOH     0.0372 ****
9567 C1     -9.898901   17.203420    0.362038 C    1544 MOH     0.1166 ****
9568 HC2    -9.628124   16.377533    1.018941 H    1544 MOH     0.0372 ****
9569 HC3    -9.250537   18.054209    0.572756 H    1544 MOH     0.0372 ****
9570 O1     -9.760915   16.884169   -0.999849 O    1544 MOH    -0.6497 ****
9571 HO1   -10.057673   17.676988   -1.452398 H    1544 MOH     0.4215 ****
9572 HC1    -5.436561   16.759654   -5.118746 H    1545 MOH     0.0372 ****
9573 C1     -5.422127   17.467148   -5.948182 C    1545 MOH     0.1166 ****
9574 HC2    -6.412860   17.898258   -6.089604 H    1545 MOH     0.0372 ****
9575 HC3    -5.083223   16.973984   -6.858936 H    1545 MOH     0.0372 ****
9576 O1     -4.545132   18.518796   -5.641298 O    1545 MOH    -0.6497 ****
9577 HO1    -4.348833   18.525736   -4.701553 H    1545 MOH     0.4215 ****
9578 HC1     0.694899   12.924978    8.210924 H    1546 MOH     0.0372 ****
9579 C1      0.769954   13.966827    7.901211 C    1546 MOH     0.1166 ****
9580 HC2     1.808607   14.191364    7.657966 H    1546 MOH     0.0372 ****
9581 HC3     0.407956   14.568177    8.736304 H    1546 MOH     0.0372 ****
9582 O1     -0.118010   14.124411    6.824995 O    1546 MOH    -0.6497 ****
9583 HO1     0.249184   13.603895    6.107281 H    1546 MOH     0.4215 ****
9584 HC1    -9.580204    9.012326    8.759639 H    1547 MOH     0.0372 ****
9585 C1     -8.587739    9.033147    8.309212 C    1547 MOH     0.1166 ****
9586 HC2    -8.064660    9.944357    8.599125 H    1547 MOH     0.0372 ****
9587 HC3    -8.647783    8.977625    7.223096 H    1547 MOH     0.0372 ****
9588 O1     -7.852772    7.968435    8.757517 O    1547 MOH    -0.6497 ****
9589 HO1    -8.299641    7.172351    8.461947 H    1547 MOH     0.4215 ****
9590 HC1   -11.640190   21.241812    1.764938 H    1548 MOH     0.0372 ****
9591 C1    -11.879790   20.609027    2.619123 C    1548 MOH     0.1166 ****
9592 HC2   -12.925371   20.733543    2.899845 H    1548 MOH     0.0372 ****
9593 HC3   -11.247592   20.916438    3.452802 H    1548 MOH     0.0372 ****
9594 O1    -11.577836   19.258950    2.303047 O    1548 MOH    -0.6497 ****
9595 HO1   -12.040293   18.985832    1.507551 H    1548 MOH     0.4215 ****
9596 HC1   -14.233647   13.303424   -7.334819 H    1549 MOH     0.0372 ****
9597 C1    -13.445564   13.337717   -8.087180 C    1549 MOH     0.1166 ****
9598 HC2   -13.865875   13.729227   -9.014197 H    1549 MOH     0.0372 ****
9599 HC3   -13.047770   12.339958   -8.273857 H    1549 MOH     0.0372 ****
9600 O1    -12.439242   14.237904   -7.737163 O    1549 MOH    -0.6497 ****
9601 HO1   -11.611899   13.772909   -7.880705 H    1549 MOH     0.4215 ****
9602 HC1   -11.029930   12.682886  -10.052937 H    1550 MOH     0.0372 ****
9603 C1    -10.599804   12.112972   -9.228451 C    1550 MOH     0.1166 ****
9604 HC2    -9.824423   11.469164   -9.643522 H    1550 MOH     0.0372 ****
9605 HC3   -11.345164   11.464265   -8.768124 H    1550 MOH     0.0372 ****
9606 O1    -10.030537   13.007444   -8.288706 O    1550 MOH    -0.6497 ****
9607 HO1    -9.616000   12.468148   -7.612005 H    1550 MOH     0.4215 ****
9608 HC1    -0.682659   21.398171   -7.767568 H    1551 MOH     0.0372 ****
9609 C1      0.060968   20.877246   -8.370023 C    1551 MOH     0.1166 ****
9610 HC2     0.976646   21.466757   -8.418106 H    1551 MOH     0.0372 ****
9611 HC3    -0.275050   20.755996   -9.400278 H    1551 MOH     0.0372 ****
9612 O1      0.399296   19.648419   -7.785953 O    1551 MOH    -0.6497 ****
9613 HO1    -0.304494   19.376934   -7.192690 H    1551 MOH     0.4215 ****
9614 HC1     0.033255   15.721070   -3.107734 H    1552 MOH     0.0372 ****
9615 C1     -0.006004   14.651460   -3.312795 C    1552 MOH     0.1166 ****
9616 HC2    -0.784273   14.223207   -2.681349 H    1552 MOH     0.0372 ****
9617 HC3     0.962789   14.215042   -3.068844 H    1552 MOH     0.0372 ****
9618 O1     -0.294680   14.359562   -4.681047 O    1552 MOH    -0.6497 ****
9619 HO1     0.134869   13.545107   -4.953283 H    1552 MOH     0.4215 ****
9620 HC1     4.194796   14.401203   -5.354213 H    1553 MOH     0.0372 ****
9621 C1      3.672294   15.330376   -5.126524 C    1553 MOH     0.1166 ****
9622 HC2     2.639992   15.117271   -4.847924 H    1553 MOH     0.0372 ****
9623 HC3     3.712709   15.976634   -6.002630 H    1553 MOH     0.0372 ****
9624 O1      4.359918   15.893759   -4.060207 O    1553 MOH    -0.6497 ****
9625 HO1     4.822376   15.178508   -3.617558 H    1553 MOH     0.4215 ****
9626 HC1    -0.932074   16.545732   -5.735343 H    1554 MOH     0.0372 ****
9627 C1     -1.869114   16.801703   -6.228197 C    1554 MOH     0.1166 ****
9628 HC2    -2.707426   16.469797   -5.615135 H    1554 MOH     0.0372 ****
9629 HC3    -1.887589   16.302824   -7.196933 H    1554 MOH     0.0372 ****
9630 O1     -1.899713   18.185257   -6.445278 O    1554 MOH    -0.6497 ****
9631 HO1    -2.815968   18.426531   -6.597306 H    1554 MOH     0.4215 ****
9632 HC1   -10.878665   15.843545    3.506542 H    1555 MOH     0.0372 ****
9633 C1    -11.888450   16.242811    3.598466 C    1555 MOH     0.1166 ****
9634 HC2   -12.501019   15.501433    4.111826 H    1555 MOH     0.0372 ****
9635 HC3   -12.289709   16.434688    2.602860 H    1555 MOH     0.0372 ****
9636 O1    -11.820323   17.431630    4.360727 O    1555 MOH    -0.6497 ****
9637 HO1   -11.486037   18.124836    3.786557 H    1555 MOH     0.4215 ****
9638 HC1    -4.261653   11.835771   -7.443006 H    1556 MOH     0.0372 ****
9639 C1     -3.956235   10.855567   -7.809995 C    1556 MOH     0.1166 ****
9640 HC2    -3.007071   10.935175   -8.339617 H    1556 MOH     0.0372 ****
9641 HC3    -4.722956   10.463240   -8.476796 H    1556 MOH     0.0372 ****
9642 O1     -3.802660    9.934967   -6.735899 O    1556 MOH    -0.6497 ****
9643 HO1    -2.953378    9.500999   -6.844087 H    1556 MOH     0.4215 ****
9644 HC1   -15.134891   23.079746    1.930401 H    1557 MOH     0.0372 ****
9645 C1    -14.272330   23.542699    1.450983 C    1557 MOH     0.1166 ****
9646 HC2   -13.485401   23.657417    2.196980 H    1557 MOH     0.0372 ****
9647 HC3   -14.589295   24.534742    1.128542 H    1557 MOH     0.0372 ****
9648 O1    -13.889546   22.755188    0.292035 O    1557 MOH    -0.6497 ****
9649 HO1   -14.583521   22.801320   -0.369110 H    1557 MOH     0.4215 ****
9650 HC1    -8.448598   18.517163    8.191125 H    1558 MOH     0.0372 ****
9651 C1     -7.840648   19.387956    7.942930 C    1558 MOH     0.1166 ****
9652 HC2    -6.791025   19.118512    7.828379 H    1558 MOH     0.0372 ****
9653 HC3    -7.897228   20.110148    8.758224 H    1558 MOH     0.0372 ****
9654 O1     -8.235555   19.950114    6.733071 O    1558 MOH    -0.6497 ****
9655 HO1    -7.953808   19.351622    6.037277 H    1558 MOH     0.4215 ****
9656 HC1    -6.975777   15.511230  -12.517912 H    1559 MOH     0.0372 ****
9657 C1     -6.052016   15.699433  -13.065919 C    1559 MOH     0.1166 ****
9658 HC2    -5.461387   14.784548  -13.028443 H    1559 MOH     0.0372 ****
9659 HC3    -5.529514   16.522870  -12.578723 H    1559 MOH     0.0372 ****
9660 O1     -6.325103   16.051751  -14.420029 O    1559 MOH    -0.6497 ****
9661 HO1    -5.543371   16.473880  -14.783482 H    1559 MOH     0.4215 ****
9662 HC1    -2.867930   24.767036   -2.496794 H    1560 MOH     0.0372 ****
9663 C1     -3.882911   24.383691   -2.600739 C    1560 MOH     0.1166 ****
9664 HC2    -4.604022   25.201004   -2.579526 H    1560 MOH     0.0372 ****
9665 HC3    -4.117893   23.688852   -1.794637 H    1560 MOH     0.0372 ****
9666 O1     -4.010506   23.671706   -3.783021 O    1560 MOH    -0.6497 ****
9667 HO1    -3.289973   23.038512   -3.814841 H    1560 MOH     0.4215 ****
9668 HC1    -9.389101   10.773101   -1.607254 H    1561 MOH     0.0372 ****
9669 C1     -8.532313   10.515088   -2.230922 C    1561 MOH     0.1166 ****
9670 HC2    -8.346406   11.308314   -2.954292 H    1561 MOH     0.0372 ****
9671 HC3    -8.778264    9.611226   -2.788122 H    1561 MOH     0.0372 ****
9672 O1     -7.368952   10.324436   -1.429770 O    1561 MOH    -0.6497 ****
9673 HO1    -6.672668    9.976608   -1.991213 H    1561 MOH     0.4215 ****
9674 HC1    -3.334429   10.433030   -2.423962 H    1562 MOH     0.0372 ****
9675 C1     -3.832682    9.657358   -3.003790 C    1562 MOH     0.1166 ****
9676 HC2    -3.105798    8.911897   -3.326230 H    1562 MOH     0.0372 ****
9677 HC3    -4.295140   10.131334   -3.869996 H    1562 MOH     0.0372 ****
9678 O1     -4.807827    9.026615   -2.206880 O    1562 MOH    -0.6497 ****
9679 HO1    -4.336131    8.657558   -1.457347 H    1562 MOH     0.4215 ****
9680 HC1     0.006120   16.484903    4.763071 H    1563 MOH     0.0372 ****
9681 C1     -0.616264   17.379375    4.753879 C    1563 MOH     0.1166 ****
9682 HC2    -0.172281   18.166477    5.363405 H    1563 MOH     0.0372 ****
9683 HC3    -1.587944   17.101358    5.163294 H    1563 MOH     0.0372 ****
9684 O1     -0.795820   17.832122    3.432296 O    1563 MOH    -0.6497 ****
9685 HO1     0.061546   18.107690    3.099249 H    1563 MOH     0.4215 ****
9686 HC1    -4.009928   22.131793   -6.717515 H    1564 MOH     0.0372 ****
9687 C1     -3.416990   21.793355   -7.566750 C    1564 MOH     0.1166 ****
9688 HC2    -3.049795   20.797638   -7.318555 H    1564 MOH     0.0372 ****
9689 HC3    -2.570017   22.463291   -7.718778 H    1564 MOH     0.0372 ****
9690 O1     -4.221239   21.742324   -8.737012 O    1564 MOH    -0.6497 ****
9691 HO1    -3.814207   21.091985   -9.314718 H    1564 MOH     0.4215 ****
9692 HC1    -8.253453   22.452676   -1.055004 H    1565 MOH     0.0372 ****
9693 C1     -8.072165   21.414501   -0.775696 C    1565 MOH     0.1166 ****
9694 HC2    -8.731499   20.777225   -1.364716 H    1565 MOH     0.0372 ****
9695 HC3    -8.296754   21.259775    0.280014 H    1565 MOH     0.0372 ****
9696 O1     -6.741950   21.018908   -1.016820 O    1565 MOH    -0.6497 ****
9697 HO1    -6.562394   21.127094   -1.953736 H    1565 MOH     0.4215 ****
9698 HC1    -4.364999   16.664532    2.603567 H    1566 MOH     0.0372 ****
9699 C1     -3.911202   17.543899    3.060358 C    1566 MOH     0.1166 ****
9700 HC2    -3.074044   17.860699    2.438104 H    1566 MOH     0.0372 ****
9701 HC3    -3.607515   17.294867    4.077178 H    1566 MOH     0.0372 ****
9702 O1     -4.861520   18.541658    3.025003 O    1566 MOH    -0.6497 ****
9703 HO1    -5.189455   18.597179    2.124149 H    1566 MOH     0.4215 ****
9704 HC1    -4.995465   14.065623   -4.748929 H    1567 MOH     0.0372 ****
9705 C1     -4.068241   13.888852   -4.205164 C    1567 MOH     0.1166 ****
9706 HC2    -4.134059   12.964169   -3.631701 H    1567 MOH     0.0372 ****
9707 HC3    -3.844806   14.725353   -3.542605 H    1567 MOH     0.0372 ****
9708 O1     -3.064806   13.786790   -5.135717 O    1567 MOH    -0.6497 ****
9709 HO1    -2.254784   14.127677   -4.748929 H    1567 MOH     0.4215 ****
9710 HC1    -7.092402   14.209735  -10.021825 H    1568 MOH     0.0372 ****
9711 C1     -6.812387   13.301382   -9.487959 C    1568 MOH     0.1166 ****
9712 HC2    -6.004096   12.805769  -10.025360 H    1568 MOH     0.0372 ****
9713 HC3    -7.643194   12.595521   -9.464624 H    1568 MOH     0.0372 ****
9714 O1     -6.374755   13.562661   -8.168498 O    1568 MOH    -0.6497 ****
9715 HO1    -6.722320   12.858025   -7.616954 H    1568 MOH     0.4215 ****
9716 HC1    -3.401979   15.911314   11.864545 H    1569 MOH     0.0372 ****
9717 C1     -4.293408   16.537975   11.832725 C    1569 MOH     0.1166 ****
9718 HC2    -5.181950   15.907231   11.792420 H    1569 MOH     0.0372 ****
9719 HC3    -4.284170   17.156063   10.934699 H    1569 MOH     0.0372 ****
9720 O1     -4.283015   17.385498   12.954196 O    1569 MOH    -0.6497 ****
9721 HO1    -3.527264   17.965619   12.837523 H    1569 MOH     0.4215 ****
9722 HC1     3.851273   16.508173   -0.596091 H    1570 MOH     0.0372 ****
9723 C1      2.841487   16.187290   -0.852064 C    1570 MOH     0.1166 ****
9724 HC2     2.144048   16.617992   -0.132936 H    1570 MOH     0.0372 ****
9725 HC3     2.760081   15.100941   -0.817416 H    1570 MOH     0.0372 ****
9726 O1      2.486417   16.646569   -2.124149 O    1570 MOH    -0.6497 ****
9727 HO1     3.085129   16.239137   -2.753474 H    1570 MOH     0.4215 ****
9728 HC1    -1.744984   17.173209   10.451038 H    1571 MOH     0.0372 ****
9729 C1     -1.520394   18.239146   10.501243 C    1571 MOH     0.1166 ****
9730 HC2    -1.879506   18.787015    9.630087 H    1571 MOH     0.0372 ****
9731 HC3    -0.434398   18.285686   10.429118 H    1571 MOH     0.0372 ****
9732 O1     -1.881238   18.837229   11.767671 O    1571 MOH    -0.6497 ****
9733 HO1    -1.953407   19.785998   11.641806 H    1571 MOH     0.4215 ****
9734 HC1    -7.502898   15.079304    6.900655 H    1572 MOH     0.0372 ****
9735 C1     -7.157642   14.236271    6.303150 C    1572 MOH     0.1166 ****
9736 HC2    -6.417479   13.704324    6.902069 H    1572 MOH     0.0372 ****
9737 HC3    -6.715969   14.622066    5.384618 H    1572 MOH     0.0372 ****
9738 O1     -8.210152   13.318529    5.969395 O    1572 MOH    -0.6497 ****
9739 HO1    -7.931292   12.805361    5.207841 H    1572 MOH     0.4215 ****
9740 HC1    -0.345486   23.616592    0.678115 H    1573 MOH     0.0372 ****
9741 C1     -0.837966   24.053009   -0.190919 C    1573 MOH     0.1166 ****
9742 HC2    -1.780202   24.540458    0.059397 H    1573 MOH     0.0372 ****
9743 HC3    -1.090268   23.218550   -0.845700 H    1573 MOH     0.0372 ****
9744 O1     -0.000231   24.978100   -0.890955 O    1573 MOH    -0.6497 ****
9745 HO1    -0.541208   25.677838   -1.262893 H    1573 MOH     0.4215 ****
9746 HC1     5.995552   12.216667   -1.660994 H    1574 MOH     0.0372 ****
9747 C1      5.089689   12.541224   -2.172232 C    1574 MOH     0.1166 ****
9748 HC2     4.204034   12.148489   -1.673015 H    1574 MOH     0.0372 ****
9749 HC3     5.097195   12.192988   -3.205315 H    1574 MOH     0.0372 ****
9750 O1      4.996736   13.933351   -2.158090 O    1574 MOH    -0.6497 ****
9751 HO1     5.266936   14.218716   -1.281985 H    1574 MOH     0.4215 ****
9752 HC1    -1.470165   16.780474    0.323855 H    1575 MOH     0.0372 ****
9753 C1     -0.806789   15.958671    0.593262 C    1575 MOH     0.1166 ****
9754 HC2     0.209347   16.344874    0.671044 H    1575 MOH     0.0372 ****
9755 HC3    -0.820646   15.176059   -0.165463 H    1575 MOH     0.0372 ****
9756 O1     -1.184954   15.531643    1.880197 O    1575 MOH    -0.6497 ****
9757 HO1    -1.131260   16.300783    2.451539 H    1575 MOH     0.4215 ****
9758 HC1    -6.983860   15.743524   -4.553768 H    1576 MOH     0.0372 ****
9759 C1     -7.614326   15.429989   -3.722210 C    1576 MOH     0.1166 ****
9760 HC2    -8.590626   15.117271   -4.092734 H    1576 MOH     0.0372 ****
9761 HC3    -7.784645   16.257100   -3.032074 H    1576 MOH     0.0372 ****
9762 O1     -7.012150   14.375892   -3.026417 O    1576 MOH    -0.6497 ****
9763 HO1    -7.662824   14.021532   -2.416891 H    1576 MOH     0.4215 ****
9764 HC1    -4.321698   20.475938   -1.409971 H    1577 MOH     0.0372 ****
9765 C1     -3.665250   20.751506   -0.584777 C    1577 MOH     0.1166 ****
9766 HC2    -4.212001   20.715580    0.358503 H    1577 MOH     0.0372 ****
9767 HC3    -3.318840   21.774168   -0.735391 H    1577 MOH     0.0372 ****
9768 O1     -2.546346   19.879487   -0.519724 O    1577 MOH    -0.6497 ****
9769 HO1    -1.941283   20.206086    0.150614 H    1577 MOH     0.4215 ****
9770 HC1    -0.545250   25.190798    6.357597 H    1578 MOH     0.0372 ****
9771 C1     -0.857019   24.771935    7.315019 C    1578 MOH     0.1166 ****
9772 HC2    -1.384140   25.518213    7.907575 H    1578 MOH     0.0372 ****
9773 HC3     0.035565   24.438396    7.843228 H    1578 MOH     0.0372 ****
9774 O1     -1.671660   23.657825    7.088038 O    1578 MOH    -0.6497 ****
9775 HO1    -2.357552   23.899100    6.462249 H    1578 MOH     0.4215 ****
9776 HC1   -14.983625   10.408127   -1.356938 H    1579 MOH     0.0372 ****
9777 C1    -14.339880   11.192372   -1.753625 C    1579 MOH     0.1166 ****
9778 HC2   -14.305816   11.993763   -1.016113 H    1579 MOH     0.0372 ****
9779 HC3   -14.738829   11.632463   -2.668621 H    1579 MOH     0.0372 ****
9780 O1    -13.028140   10.727785   -1.984142 O    1579 MOH    -0.6497 ****
9781 HO1   -12.585889   11.514888   -2.309411 H    1579 MOH     0.4215 ****
9782 HC1    -5.707916   22.115055    5.149858 H    1580 MOH     0.0372 ****
9783 C1     -5.125947   22.357554    4.260318 C    1580 MOH     0.1166 ****
9784 HC2    -5.162320   21.535751    3.545433 H    1580 MOH     0.0372 ****
9785 HC3    -4.098841   22.500850    4.597608 H    1580 MOH     0.0372 ****
9786 O1     -5.591868   23.601895    3.728574 O    1580 MOH    -0.6497 ****
9787 HO1    -5.176176   24.279179    4.266682 H    1580 MOH     0.4215 ****
9788 HC1    -8.213616   17.548798    2.821356 H    1581 MOH     0.0372 ****
9789 C1     -8.050803   17.324669    3.875652 C    1581 MOH     0.1166 ****
9790 HC2    -7.483268   16.397946    3.967576 H    1581 MOH     0.0372 ****
9791 HC3    -9.034608   17.207094    4.329615 H    1581 MOH     0.0372 ****
9792 O1     -7.357983   18.401220    4.467500 O    1581 MOH    -0.6497 ****
9793 HO1    -6.519670   18.491851    4.009295 H    1581 MOH     0.4215 ****
9794 HC1   -10.278221   11.482636    7.580892 H    1582 MOH     0.0372 ****
9795 C1    -10.671396   11.917421    8.499423 C    1582 MOH     0.1166 ****
9796 HC2   -10.855571   12.982132    8.358002 H    1582 MOH     0.0372 ****
9797 HC3    -9.972225   11.773309    9.323203 H    1582 MOH     0.0372 ****
9798 O1    -11.835912   11.256467    8.828228 O    1582 MOH    -0.6497 ****
9799 HO1   -12.260264   11.705948    9.562912 H    1582 MOH     0.4215 ****
9800 HC1    -8.491321   17.443878   -6.514575 H    1583 MOH     0.0372 ****
9801 C1     -8.624689   16.421216   -6.867421 C    1583 MOH     0.1166 ****
9802 HC2    -9.623505   16.343649   -7.295928 H    1583 MOH     0.0372 ****
9803 HC3    -8.551366   15.704332   -6.050006 H    1583 MOH     0.0372 ****
9804 O1     -7.704393   16.144015   -7.879291 O    1583 MOH    -0.6497 ****
9805 HO1    -7.588345   15.196063   -7.971215 H    1583 MOH     0.4215 ****
9806 HC1    -6.304318    8.169293   -7.556850 H    1584 MOH     0.0372 ****
9807 C1     -7.041017    8.515079   -6.832066 C    1584 MOH     0.1166 ****
9808 HC2    -7.311795    7.707156   -6.151122 H    1584 MOH     0.0372 ****
9809 HC3    -7.949767    8.814734   -7.352496 H    1584 MOH     0.0372 ****
9810 O1     -6.601077    9.596529   -6.037985 O    1584 MOH    -0.6497 ****
9811 HO1    -5.653645    9.527944   -5.902220 H    1584 MOH     0.4215 ****
9812 HC1    -5.355732   24.724578   -7.204711 H    1585 MOH     0.0372 ****
9813 C1     -6.203282   24.059950   -7.035006 C    1585 MOH     0.1166 ****
9814 HC2    -7.068730   24.703757   -6.878735 H    1585 MOH     0.0372 ****
9815 HC3    -5.970610   23.458192   -6.156779 H    1585 MOH     0.0372 ****
9816 O1     -6.336650   23.358171   -8.250522 O    1585 MOH    -0.6497 ****
9817 HO1    -5.490832   22.952372   -8.455583 H    1585 MOH     0.4215 ****
9818 HC1    -7.467102    5.918620   -1.794637 H    1586 MOH     0.0372 ****
9819 C1     -6.431913    6.222765   -1.950908 C    1586 MOH     0.1166 ****
9820 HC2    -5.843016    5.320128   -2.118492 H    1586 MOH     0.0372 ****
9821 HC3    -6.058945    6.779616   -1.092480 H    1586 MOH     0.0372 ****
9822 O1     -6.434222    6.954346   -3.127533 O    1586 MOH    -0.6497 ****
9823 HO1    -5.796828    7.663474   -3.017932 H    1586 MOH     0.4215 ****
9824 HC1    -3.938337   20.106882    7.376538 H    1587 MOH     0.0372 ****
9825 C1     -3.874829   19.183832    6.800246 C    1587 MOH     0.1166 ****
9826 HC2    -2.843104   18.979708    6.514575 H    1587 MOH     0.0372 ****
9827 HC3    -4.492016   19.295692    5.909291 H    1587 MOH     0.0372 ****
9828 O1     -4.392712   18.130552    7.565335 O    1587 MOH    -0.6497 ****
9829 HO1    -4.142719   17.305890    7.141071 H    1587 MOH     0.4215 ****
9830 HC1   -15.989369   19.414492   -1.105915 H    1588 MOH     0.0372 ****
9831 C1    -16.155646   20.484919   -0.987121 C    1588 MOH     0.1166 ****
9832 HC2   -15.802308   20.805803   -0.007071 H    1588 MOH     0.0372 ****
9833 HC3   -17.222589   20.698025   -1.059246 H    1588 MOH     0.0372 ****
9834 O1    -15.468599   21.199354   -1.996870 O    1588 MOH    -0.6497 ****
9835 HO1   -15.559243   20.669448   -2.791658 H    1588 MOH     0.4215 ****
9836 HC1    -9.326170   25.730502   -3.954848 H    1589 MOH     0.0372 ****
9837 C1     -8.454948   25.075263   -3.973940 C    1589 MOH     0.1166 ****
9838 HC2    -8.455526   24.503716   -4.901664 H    1589 MOH     0.0372 ****
9839 HC3    -8.482661   24.366136   -3.145918 H    1589 MOH     0.0372 ****
9840 O1     -7.276576   25.859916   -3.900401 O    1589 MOH    -0.6497 ****
9841 HO1    -7.306021   26.370635   -3.087936 H    1589 MOH     0.4215 ****
9842 HC1   -13.511382   18.965419   -1.429770 H    1590 MOH     0.0372 ****
9843 C1    -13.244069   17.960720   -1.100966 C    1590 MOH     0.1166 ****
9844 HC2   -12.299524   17.671272   -1.561292 H    1590 MOH     0.0372 ****
9845 HC3   -14.006748   17.247102   -1.410678 H    1590 MOH     0.0372 ****
9846 O1    -13.076637   17.968477    0.328097 O    1590 MOH    -0.6497 ****
9847 HO1   -13.905135   18.156271    0.774989 H    1590 MOH     0.4215 ****
9848 HC1     4.422272   20.101982   -3.999396 H    1591 MOH     0.0372 ****
9849 C1      3.975403   20.515946   -4.903079 C    1591 MOH     0.1166 ****
9850 HC2     2.947720   20.834788   -4.731252 H    1591 MOH     0.0372 ****
9851 HC3     4.006003   19.743540   -5.672411 H    1591 MOH     0.0372 ****
9852 O1      4.786003   21.580250   -5.291280 O    1591 MOH    -0.6497 ****
9853 HO1     4.967868   22.126486   -4.523362 H    1591 MOH     0.4215 ****
9854 HC1    -2.351778   17.849677   -9.405227 H    1592 MOH     0.0372 ****
9855 C1     -3.276116   18.364886   -9.666857 C    1592 MOH     0.1166 ****
9856 HC2    -3.989144   18.317937   -8.843078 H    1592 MOH     0.0372 ****
9857 HC3    -3.712016   17.918671  -10.559933 H    1592 MOH     0.0372 ****
9858 O1     -3.038248   19.714147   -9.946164 O    1592 MOH    -0.6497 ****
9859 HO1    -2.533644   19.744357  -10.762165 H    1592 MOH     0.4215 ****
9860 HC1   -10.629827   25.043012    0.647002 H    1593 MOH     0.0372 ****
9861 C1    -11.000486   24.646194    1.591697 C    1593 MOH     0.1166 ****
9862 HC2   -10.146007   24.523312    2.257085 H    1593 MOH     0.0372 ****
9863 HC3   -11.472181   23.670481    1.475732 H    1593 MOH     0.0372 ****
9864 O1    -11.855541   25.581491    2.153847 O    1593 MOH    -0.6497 ****
9865 HO1   -11.670789   25.583124    3.095713 H    1593 MOH     0.4215 ****
9866 HC1   -10.745874   11.988456   12.798633 H    1594 MOH     0.0372 ****
9867 C1     -9.851559   11.545915   13.238453 C    1594 MOH     0.1166 ****
9868 HC2    -9.785741   11.819033   14.291335 H    1594 MOH     0.0372 ****
9869 HC3    -8.961285   11.915788   12.729336 H    1594 MOH     0.0372 ****
9870 O1     -9.902943   10.133376   13.122487 O    1594 MOH    -0.6497 ****
9871 HO1    -8.997658    9.825148   13.210876 H    1594 MOH     0.4215 ****
9872 HC1   -12.092255    7.629997   -8.865705 H    1595 MOH     0.0372 ****
9873 C1    -11.578413    7.939041   -7.955659 C    1595 MOH     0.1166 ****
9874 HC2   -10.495304    7.912913   -8.071624 H    1595 MOH     0.0372 ****
9875 HC3   -11.881522    7.299724   -7.125515 H    1595 MOH     0.0372 ****
9876 O1    -12.017777    9.196446   -7.672816 O    1595 MOH    -0.6497 ****
9877 HO1   -12.349753    9.558562   -8.498009 H    1595 MOH     0.4215 ****
9878 HC1   -11.341700   20.368160    6.385174 H    1596 MOH     0.0372 ****
9879 C1    -11.408095   20.107698    7.441592 C    1596 MOH     0.1166 ****
9880 HC2   -11.300130   19.029514    7.565335 H    1596 MOH     0.0372 ****
9881 HC3   -12.391900   20.422457    7.790195 H    1596 MOH     0.0372 ****
9882 O1    -10.424290   20.826623    8.164962 O    1596 MOH    -0.6497 ****
9883 HO1    -9.601566   20.717621    7.682008 H    1596 MOH     0.4215 ****
9884 HC1    -3.795154   22.929102   11.233805 H    1597 MOH     0.0372 ****
9885 C1     -3.357523   22.025649   10.808834 C    1597 MOH     0.1166 ****
9886 HC2    -3.113881   22.220791    9.765144 H    1597 MOH     0.0372 ****
9887 HC3    -4.063045   21.199354   10.902172 H    1597 MOH     0.0372 ****
9888 O1     -2.221298   21.728036   11.556246 O    1597 MOH    -0.6497 ****
9889 HO1    -1.593718   22.453901   11.508163 H    1597 MOH     0.4215 ****
9890 HC1    -7.015037   15.731276   10.600945 H    1598 MOH     0.0372 ****
9891 C1     -7.425533   14.774751   10.924092 C    1598 MOH     0.1166 ****
9892 HC2    -6.646687   14.012143   10.945306 H    1598 MOH     0.0372 ****
9893 HC3    -8.210729   14.495917   10.221935 H    1598 MOH     0.0372 ****
9894 O1     -8.021358   14.919271   12.179914 O    1598 MOH    -0.6497 ****
9895 HO1    -7.400707   15.368344   12.758327 H    1598 MOH     0.4215 ****
9896 HC1   -10.632136   26.456775   -2.428205 H    1599 MOH     0.0372 ****
9897 C1    -10.065756   26.761737   -1.547857 C    1599 MOH     0.1166 ****
9898 HC2    -9.680086   25.868081   -1.056418 H    1599 MOH     0.0372 ****
9899 HC3   -10.719893   27.285519   -0.851357 H    1599 MOH     0.0372 ****
9900 O1     -8.971099   27.576192   -1.953029 O    1599 MOH    -0.6497 ****
9901 HO1    -9.322128   28.451477   -2.129806 H    1599 MOH     0.4215 ****
9902 HC1   -18.715617   17.051960   -3.031367 H    1600 MOH     0.0372 ****
9903 C1    -18.156742   17.684336   -2.341938 C    1600 MOH     0.1166 ****
9904 HC2   -18.111709   18.684953   -2.772566 H    1600 MOH     0.0372 ****
9905 HC3   -17.143492   17.289968   -2.261328 H    1600 MOH     0.0372 ****
9906 O1    -18.821850   17.696584   -1.053589 O    1600 MOH    -0.6497 ****
9907 HO1   -18.354773   17.078496   -0.487904 H    1600 MOH     0.4215 ****
9908 HC1   -10.240693   10.838829   -5.132181 H    1601 MOH     0.0372 ****
9909 C1    -11.122884   11.422216   -4.871259 C    1601 MOH     0.1166 ****
9910 HC2   -10.818620   12.420791   -4.560132 H    1601 MOH     0.0372 ****
9911 HC3   -11.658088   10.932318   -4.058086 H    1601 MOH     0.0372 ****
9912 O1    -11.943876   11.477329   -6.038692 O    1601 MOH    -0.6497 ****
9913 HO1   -12.034520   10.588573   -6.391538 H    1601 MOH     0.4215 ****
9914 HC1    -8.510374   12.701666   -0.065761 H    1602 MOH     0.0372 ****
9915 C1     -8.822143   13.745148   -0.101116 C    1602 MOH     0.1166 ****
9916 HC2    -8.016162   14.402428    0.226981 H    1602 MOH     0.0372 ****
9917 HC3    -9.665074   13.868439    0.577706 H    1602 MOH     0.0372 ****
9918 O1     -9.275363   14.091343   -1.395122 O    1602 MOH    -0.6497 ****
9919 HO1    -9.486673   15.027048   -1.365423 H    1602 MOH     0.4215 ****
9920 HC1   -12.914402   12.483253    6.634076 H    1603 MOH     0.0372 ****
9921 C1    -12.431160   12.332609    5.668875 C    1603 MOH     0.1166 ****
9922 HC2   -11.975630   11.343015    5.649076 H    1603 MOH     0.0372 ****
9923 HC3   -11.670789   13.101749    5.530282 H    1603 MOH     0.0372 ****
9924 O1    -13.462307   12.382007    4.682461 O    1603 MOH    -0.6497 ****
9925 HO1   -13.974994   13.182991    4.812569 H    1603 MOH     0.4215 ****
9926 HC1   -17.214507   13.910897    0.300520 H    1604 MOH     0.0372 ****
9927 C1    -16.626764   14.826598    0.362038 C    1604 MOH     0.1166 ****
9928 HC2   -16.160842   15.037254   -0.601041 H    1604 MOH     0.0372 ****
9929 HC3   -15.838104   14.677996    1.098844 H    1604 MOH     0.0372 ****
9930 O1    -17.408496   15.951322    0.737512 O    1604 MOH    -0.6497 ****
9931 HO1   -17.808600   15.787206    1.594526 H    1604 MOH     0.4215 ****
9932 HC1    -3.397360   24.584141    2.779637 H    1605 MOH     0.0372 ****
9933 C1     -2.451660   24.927069    3.199658 C    1605 MOH     0.1166 ****
9934 HC2    -2.565398   25.901558    3.675541 H    1605 MOH     0.0372 ****
9935 HC3    -1.721889   25.040562    2.397799 H    1605 MOH     0.0372 ****
9936 O1     -2.009987   24.004836    4.171930 O    1605 MOH    -0.6497 ****
9937 HO1    -1.178603   23.616592    3.889794 H    1605 MOH     0.4215 ****
9938 HC1    -3.479344   16.518379   -2.149605 H    1606 MOH     0.0372 ****
9939 C1     -2.697611   17.191580   -2.501037 C    1606 MOH     0.1166 ****
9940 HC2    -2.138159   16.756796   -3.329059 H    1606 MOH     0.0372 ****
9941 HC3    -2.012297   17.396521   -1.679379 H    1606 MOH     0.0372 ****
9942 O1     -3.271498   18.391014   -2.946514 O    1606 MOH    -0.6497 ****
9943 HO1    -3.076353   19.034413   -2.260621 H    1606 MOH     0.4215 ****
9944 HC1    -4.081058   28.718308    2.213244 H    1607 MOH     0.0372 ****
9945 C1     -4.881843   28.324348    2.839033 C    1607 MOH     0.1166 ****
9946 HC2    -5.447646   27.593992    2.259913 H    1607 MOH     0.0372 ****
9947 HC3    -5.554456   29.101245    3.200365 H    1607 MOH     0.0372 ****
9948 O1     -4.384744   27.583377    3.883430 O    1607 MOH    -0.6497 ****
9949 HO1    -3.840303   28.179420    4.402447 H    1607 MOH     0.4215 ****
9950 HC1     8.028286   29.957341    6.719636 H    1608 MOH     0.0372 ****
9951 C1      8.089485   30.737095    7.477654 C    1608 MOH     0.1166 ****
9952 HC2     8.449752   30.291288    8.405378 H    1608 MOH     0.0372 ****
9953 HC3     7.096443   31.162490    7.623318 H    1608 MOH     0.0372 ****
9954 O1      8.960707   31.759757    7.049854 O    1608 MOH    -0.6497 ****
9955 HO1     9.847517   31.399682    6.983386 H    1608 MOH     0.4215 ****
9956 HC1     7.649545   23.852804   -6.693473 H    1609 MOH     0.0372 ****
9957 C1      7.462483   22.866885   -6.268502 C    1609 MOH     0.1166 ****
9958 HC2     7.070462   22.961598   -5.255925 H    1609 MOH     0.0372 ****
9959 HC3     8.419730   22.350451   -6.199912 H    1609 MOH     0.0372 ****
9960 O1      6.621284   22.063044   -7.117737 O    1609 MOH    -0.6497 ****
9961 HO1     5.905370   21.716849   -6.580336 H    1609 MOH     0.4215 ****
9962 HC1    10.279952   24.324740   -0.056569 H    1610 MOH     0.0372 ****
9963 C1      9.431248   24.759524    0.471640 C    1610 MOH     0.1166 ****
9964 HC2     9.294993   25.786677    0.133643 H    1610 MOH     0.0372 ****
9965 HC3     9.595792   24.747277    1.549271 H    1610 MOH     0.0372 ****
9966 O1      8.265577   24.061419    0.137886 O    1610 MOH    -0.6497 ****
9967 HO1     8.292713   23.260844    0.667509 H    1610 MOH     0.4215 ****
9968 HC1     9.174327   31.400499   -9.670392 H    1611 MOH     0.0372 ****
9969 C1      8.382202   30.868143   -9.144305 C    1611 MOH     0.1166 ****
9970 HC2     8.409338   31.125748   -8.085766 H    1611 MOH     0.0372 ****
9971 HC3     8.547902   29.800574   -9.286433 H    1611 MOH     0.0372 ****
9972 O1      7.153601   31.283740   -9.700091 O    1611 MOH    -0.6497 ****
9973 HO1     6.459048   30.924890   -9.142184 H    1611 MOH     0.4215 ****
9974 HC1    12.436356   31.877741   -9.225622 H    1612 MOH     0.0372 ****
9975 C1     12.634964   32.838349   -8.751154 C    1612 MOH     0.1166 ****
9976 HC2    13.699598   33.055537   -8.834592 H    1612 MOH     0.0372 ****
9977 HC3    12.405756   32.803240   -7.686251 H    1612 MOH     0.0372 ****
9978 O1     11.841685   33.834067   -9.402399 O    1612 MOH    -0.6497 ****
9979 HO1    11.889028   34.610147   -8.838835 H    1612 MOH     0.4215 ****
9980 HC1    -1.988741   30.590943   -0.779939 H    1613 MOH     0.0372 ****
9981 C1     -1.074218   30.897129   -1.287642 C    1613 MOH     0.1166 ****
9982 HC2    -0.478970   31.551551   -0.650538 H    1613 MOH     0.0372 ****
9983 HC3    -1.349614   31.443365   -2.189910 H    1613 MOH     0.0372 ****
9984 O1     -0.372160   29.757708   -1.685743 O    1613 MOH    -0.6497 ****
9985 HO1     0.562570   29.956525   -1.595940 H    1613 MOH     0.4215 ****
9986 HC1    11.277614   26.410480   -4.213649 H    1614 MOH     0.0372 ****
9987 C1     11.324957   27.133896   -3.399062 C    1614 MOH     0.1166 ****
9988 HC2    10.531677   27.861394   -3.570182 H    1614 MOH     0.0372 ****
9989 HC3    12.285667   27.647472   -3.445731 H    1614 MOH     0.0372 ****
9990 O1     11.139627   26.492130   -2.105057 O    1614 MOH    -0.6497 ****
9991 HO1    10.947947   27.167781   -1.449569 H    1614 MOH     0.4215 ****
9992 HC1     6.017375   29.095121    8.798530 H    1615 MOH     0.0372 ****
9993 C1      6.317020   28.047964    8.783680 C    1615 MOH     0.1166 ****
9994 HC2     6.950951   27.859353    7.916767 H    1615 MOH     0.0372 ****
9995 HC3     5.449263   27.393950    8.704484 H    1615 MOH     0.0372 ****
9996 O1      7.021965   27.736879    9.977277 O    1615 MOH    -0.6497 ****
9997 HO1     7.456132   26.888539    9.858483 H    1615 MOH     0.4215 ****
9998 HC1    -3.290088   25.590717   -9.557963 H    1616 MOH     0.0372 ****
9999 C1     -2.877283   26.598274   -9.594732 C    1616 MOH     0.1166 ****
10000 HC2    -2.962731   27.068984   -8.615389 H    1616 MOH     0.0372 ****
10001 HC3    -3.454056   27.186152  -10.308910 H    1616 MOH     0.0372 ****
10002 O1     -1.537830   26.542752  -10.026067 O    1616 MOH    -0.6497 ****
10003 HO1    -1.504344   25.882207  -10.721860 H    1616 MOH     0.4215 ****
10004 HC1    12.823180   23.747476   -3.609073 H    1617 MOH     0.0372 ****
10005 C1     12.143062   23.178787   -2.974798 C    1617 MOH     0.1166 ****
10006 HC2    12.497555   23.215937   -1.944544 H    1617 MOH     0.0372 ****
10007 HC3    12.088214   22.142244   -3.306431 H    1617 MOH     0.0372 ****
10008 O1     10.910419   23.801773   -3.056823 O    1617 MOH    -0.6497 ****
10009 HO1    11.012610   24.694612   -2.720947 H    1617 MOH     0.4215 ****
10010 HC1     6.691143   30.210863    1.374615 H    1618 MOH     0.0372 ****
10011 C1      6.550847   30.056546    0.305470 C    1618 MOH     0.1166 ****
10012 HC2     6.354548   31.011030   -0.183848 H    1618 MOH     0.0372 ****
10013 HC3     5.716576   29.377629    0.129400 H    1618 MOH     0.0372 ****
10014 O1      7.726332   29.502144   -0.246073 O    1618 MOH    -0.6497 ****
10015 HO1     8.372965   29.401307    0.456084 H    1618 MOH     0.4215 ****
10016 HC1     4.147338   30.004698   -5.994144 H    1619 MOH     0.0372 ****
10017 C1      3.986257   28.991834   -5.625742 C    1619 MOH     0.1166 ****
10018 HC2     3.235125   29.036741   -4.838025 H    1619 MOH     0.0372 ****
10019 HC3     4.911172   28.591342   -5.210670 H    1619 MOH     0.0372 ****
10020 O1      3.534769   28.145127   -6.682159 O    1619 MOH    -0.6497 ****
10021 HO1     3.939492   27.286989   -6.532253 H    1619 MOH     0.4215 ****
10022 HC1    13.152847   24.121840    1.619982 H    1620 MOH     0.0372 ****
10023 C1     12.986571   24.208797    2.694077 C    1620 MOH     0.1166 ****
10024 HC2    13.058739   25.264935    2.953585 H    1620 MOH     0.0372 ****
10025 HC3    13.773499   23.654804    3.206729 H    1620 MOH     0.0372 ****
10026 O1     11.660974   23.689913    2.928129 O    1620 MOH    -0.6497 ****
10027 HO1    11.349782   24.038558    3.766758 H    1620 MOH     0.4215 ****
10028 HC1    12.746393   30.259853    0.438406 H    1621 MOH     0.0372 ****
10029 C1     12.729650   29.252705    0.020506 C    1621 MOH     0.1166 ****
10030 HC2    13.231367   28.594200    0.728320 H    1621 MOH     0.0372 ****
10031 HC3    13.281019   29.224127   -0.919946 H    1621 MOH     0.0372 ****
10032 O1     11.386733   28.817104   -0.128694 O    1621 MOH    -0.6497 ****
10033 HO1    10.894831   29.077974    0.654074 H    1621 MOH     0.4215 ****
10034 HC1     6.361476   25.722582    1.977070 H    1622 MOH     0.0372 ****
10035 C1      6.175569   26.308418    1.076924 C    1622 MOH     0.1166 ****
10036 HC2     6.193467   25.684615    0.183141 H    1622 MOH     0.0372 ****
10037 HC3     6.923238   27.093888    0.968029 H    1622 MOH     0.0372 ****
10038 O1      4.933112   26.896704    1.206324 O    1622 MOH    -0.6497 ****
10039 HO1     4.634622   27.007339    0.300520 H    1622 MOH     0.4215 ****
10040 HC1     7.546199   29.297612    3.396234 H    1623 MOH     0.0372 ****
10041 C1      8.300218   28.543986    3.168545 C    1623 MOH     0.1166 ****
10042 HC2     7.814089   27.654413    2.769030 H    1623 MOH     0.0372 ****
10043 HC3     8.789234   28.254538    4.098391 H    1623 MOH     0.0372 ****
10044 O1      9.234371   29.086139    2.223851 O    1623 MOH    -0.6497 ****
10045 HO1     9.450877   29.983877    2.483359 H    1623 MOH     0.4215 ****
10046 HC1     3.482808   22.668068    0.661852 H    1624 MOH     0.0372 ****
10047 C1      3.075776   23.668685    0.516895 C    1624 MOH     0.1166 ****
10048 HC2     2.030194   23.622961    0.211425 H    1624 MOH     0.0372 ****
10049 HC3     3.632341   24.126331   -0.299813 H    1624 MOH     0.0372 ****
10050 O1      3.230506   24.492530    1.673722 O    1624 MOH    -0.6497 ****
10051 HO1     3.513407   25.372713    1.413506 H    1624 MOH     0.4215 ****
10052 HC1     2.888714   27.073475    2.884288 H    1625 MOH     0.0372 ****
10053 C1      2.977049   28.059395    3.340372 C    1625 MOH     0.1166 ****
10054 HC2     2.376027   28.091238    4.248297 H    1625 MOH     0.0372 ****
10055 HC3     2.624865   28.794650    2.617002 H    1625 MOH     0.0372 ****
10056 O1      4.317079   28.263111    3.647964 O    1625 MOH    -0.6497 ****
10057 HO1     4.802053   27.796483    2.964191 H    1625 MOH     0.4215 ****
10058 HC1     6.161713   33.162090   -5.118746 H    1626 MOH     0.0372 ****
10059 C1      6.176147   33.869585   -5.948182 C    1626 MOH     0.1166 ****
10060 HC2     5.185414   34.300695   -6.089604 H    1626 MOH     0.0372 ****
10061 HC3     6.515051   33.376421   -6.858936 H    1626 MOH     0.0372 ****
10062 O1      7.053142   34.921232   -5.641298 O    1626 MOH    -0.6497 ****
10063 HO1     7.249441   34.928172   -4.701553 H    1626 MOH     0.4215 ****
10064 HC1    12.293173   29.327414    8.210924 H    1627 MOH     0.0372 ****
10065 C1     12.368228   30.369264    7.901211 C    1627 MOH     0.1166 ****
10066 HC2    13.406881   30.593800    7.657966 H    1627 MOH     0.0372 ****
10067 HC3    12.006230   30.970614    8.736304 H    1627 MOH     0.0372 ****
10068 O1     11.480264   30.526848    6.824995 O    1627 MOH    -0.6497 ****
10069 HO1    11.847458   30.006331    6.107281 H    1627 MOH     0.4215 ****
10070 HC1    -2.635373   29.705860   -7.334819 H    1628 MOH     0.0372 ****
10071 C1     -1.847290   29.740153   -8.087180 C    1628 MOH     0.1166 ****
10072 HC2    -2.267601   30.131663   -9.014197 H    1628 MOH     0.0372 ****
10073 HC3    -1.449496   28.742394   -8.273857 H    1628 MOH     0.0372 ****
10074 O1     -0.840968   30.640341   -7.737163 O    1628 MOH    -0.6497 ****
10075 HO1    -0.013625   30.175346   -7.880705 H    1628 MOH     0.4215 ****
10076 HC1     0.568344   29.085323  -10.052937 H    1629 MOH     0.0372 ****
10077 C1      0.998470   28.515408   -9.228451 C    1629 MOH     0.1166 ****
10078 HC2     1.773851   27.871601   -9.643522 H    1629 MOH     0.0372 ****
10079 HC3     0.253110   27.866702   -8.768124 H    1629 MOH     0.0372 ****
10080 O1      1.567737   29.409880   -8.288706 O    1629 MOH    -0.6497 ****
10081 HO1     1.982274   28.870584   -7.612005 H    1629 MOH     0.4215 ****
10082 HC1    11.631529   32.123507   -3.107734 H    1630 MOH     0.0372 ****
10083 C1     11.592270   31.053896   -3.312795 C    1630 MOH     0.1166 ****
10084 HC2    10.814002   30.625644   -2.681349 H    1630 MOH     0.0372 ****
10085 HC3    12.561063   30.617479   -3.068844 H    1630 MOH     0.0372 ****
10086 O1     11.303595   30.761999   -4.681047 O    1630 MOH    -0.6497 ****
10087 HO1    11.733143   29.947543   -4.953283 H    1630 MOH     0.4215 ****
10088 HC1    15.793070   30.803640   -5.354213 H    1631 MOH     0.0372 ****
10089 C1     15.270568   31.732813   -5.126524 C    1631 MOH     0.1166 ****
10090 HC2    14.238266   31.519707   -4.847924 H    1631 MOH     0.0372 ****
10091 HC3    15.310983   32.379070   -6.002630 H    1631 MOH     0.0372 ****
10092 O1     15.958192   32.296196   -4.060207 O    1631 MOH    -0.6497 ****
10093 HO1    16.420650   31.580945   -3.617558 H    1631 MOH     0.4215 ****
10094 HC1     9.193379   26.017745    4.285774 H    1632 MOH     0.0372 ****
10095 C1      9.444527   25.497229    5.209963 C    1632 MOH     0.1166 ****
10096 HC2     8.777687   24.643581    5.330878 H    1632 MOH     0.0372 ****
10097 HC3     9.321551   26.167164    6.060612 H    1632 MOH     0.0372 ****
10098 O1     10.784557   25.066527    5.113089 O    1632 MOH    -0.6497 ****
10099 HO1    10.974505   24.510901    5.871815 H    1632 MOH     0.4215 ****
10100 HC1    10.666200   32.948168   -5.735343 H    1633 MOH     0.0372 ****
10101 C1      9.729160   33.204140   -6.228197 C    1633 MOH     0.1166 ****
10102 HC2     8.890848   32.872234   -5.615135 H    1633 MOH     0.0372 ****
10103 HC3     9.710685   32.705260   -7.196933 H    1633 MOH     0.0372 ****
10104 O1      9.698561   34.587693   -6.445278 O    1633 MOH    -0.6497 ****
10105 HO1     8.782306   34.828968   -6.597306 H    1633 MOH     0.4215 ****
10106 HC1     7.336621   28.238208   -7.443006 H    1634 MOH     0.0372 ****
10107 C1      7.642039   27.258003   -7.809995 C    1634 MOH     0.1166 ****
10108 HC2     8.591203   27.337612   -8.339617 H    1634 MOH     0.0372 ****
10109 HC3     6.875318   26.865677   -8.476796 H    1634 MOH     0.0372 ****
10110 O1      7.795614   26.337404   -6.735899 O    1634 MOH    -0.6497 ****
10111 HO1     8.644897   25.903436   -6.844087 H    1634 MOH     0.4215 ****
10112 HC1    13.177673   25.589901   -0.770039 H    1635 MOH     0.0372 ****
10113 C1     14.048895   26.093271   -1.189354 C    1635 MOH     0.1166 ****
10114 HC2    13.750982   27.042448   -1.632710 H    1635 MOH     0.0372 ****
10115 HC3    14.487681   25.481715   -1.978485 H    1635 MOH     0.0372 ****
10116 O1     15.017689   26.368430   -0.203647 O    1635 MOH    -0.6497 ****
10117 HO1    15.447815   25.530297   -0.020506 H    1635 MOH     0.4215 ****
10118 HC1     4.622497   31.913667  -12.517912 H    1636 MOH     0.0372 ****
10119 C1      5.546258   32.101869  -13.065919 C    1636 MOH     0.1166 ****
10120 HC2     6.136887   31.186985  -13.028443 H    1636 MOH     0.0372 ****
10121 HC3     6.068760   32.925306  -12.578723 H    1636 MOH     0.0372 ****
10122 O1      5.273171   32.454188  -14.420029 O    1636 MOH    -0.6497 ****
10123 HO1     6.054903   32.876316  -14.783482 H    1636 MOH     0.4215 ****
10124 HC1     2.209173   27.175537   -1.607254 H    1637 MOH     0.0372 ****
10125 C1      3.065961   26.917524   -2.230922 C    1637 MOH     0.1166 ****
10126 HC2     3.251868   27.710751   -2.954292 H    1637 MOH     0.0372 ****
10127 HC3     2.820010   26.013663   -2.788122 H    1637 MOH     0.0372 ****
10128 O1      4.229322   26.726872   -1.429770 O    1637 MOH    -0.6497 ****
10129 HO1     4.925606   26.379045   -1.991213 H    1637 MOH     0.4215 ****
10130 HC1     8.263845   26.835467   -2.423962 H    1638 MOH     0.0372 ****
10131 C1      7.765592   26.059795   -3.003790 C    1638 MOH     0.1166 ****
10132 HC2     8.492476   25.314333   -3.326230 H    1638 MOH     0.0372 ****
10133 HC3     7.303135   26.533771   -3.869996 H    1638 MOH     0.0372 ****
10134 O1      6.790447   25.429051   -2.206880 O    1638 MOH    -0.6497 ****
10135 HO1     7.262143   25.059995   -1.457347 H    1638 MOH     0.4215 ****
10136 HC1    11.604394   32.887339    4.763071 H    1639 MOH     0.0372 ****
10137 C1     10.982010   33.781811    4.753879 C    1639 MOH     0.1166 ****
10138 HC2    11.425993   34.568914    5.363405 H    1639 MOH     0.0372 ****
10139 HC3    10.010330   33.503794    5.163294 H    1639 MOH     0.0372 ****
10140 O1     10.802454   34.234559    3.432296 O    1639 MOH    -0.6497 ****
10141 HO1    11.659820   34.510126    3.099249 H    1639 MOH     0.4215 ****
10142 HC1     7.233275   33.066968    2.603567 H    1640 MOH     0.0372 ****
10143 C1      7.687072   33.946335    3.060358 C    1640 MOH     0.1166 ****
10144 HC2     8.524230   34.263136    2.438104 H    1640 MOH     0.0372 ****
10145 HC3     7.990759   33.697304    4.077178 H    1640 MOH     0.0372 ****
10146 O1      6.736754   34.944094    3.025003 O    1640 MOH    -0.6497 ****
10147 HO1     6.408819   34.999616    2.124149 H    1640 MOH     0.4215 ****
10148 HC1    10.855571   29.126556    4.446287 H    1641 MOH     0.0372 ****
10149 C1     11.678295   28.435800    4.261025 C    1641 MOH     0.1166 ****
10150 HC2    11.953691   28.557050    3.213800 H    1641 MOH     0.0372 ****
10151 HC3    11.369990   27.395991    4.367799 H    1641 MOH     0.0372 ****
10152 O1     12.768332   28.746477    5.145616 O    1641 MOH    -0.6497 ****
10153 HO1    13.379169   28.005914    5.158344 H    1641 MOH     0.4215 ****
10154 HC1     6.602809   30.468060   -4.748929 H    1642 MOH     0.0372 ****
10155 C1      7.530033   30.291288   -4.205164 C    1642 MOH     0.1166 ****
10156 HC2     7.464215   29.366606   -3.631701 H    1642 MOH     0.0372 ****
10157 HC3     7.753468   31.127789   -3.542605 H    1642 MOH     0.0372 ****
10158 O1      8.533468   30.189226   -5.135717 O    1642 MOH    -0.6497 ****
10159 HO1     9.343490   30.530114   -4.748929 H    1642 MOH     0.4215 ****
10160 HC1     4.505873   30.612171  -10.021825 H    1643 MOH     0.0372 ****
10161 C1      4.785887   29.703819   -9.487959 C    1643 MOH     0.1166 ****
10162 HC2     5.594178   29.208206  -10.025360 H    1643 MOH     0.0372 ****
10163 HC3     3.955080   28.997958   -9.464624 H    1643 MOH     0.0372 ****
10164 O1      5.223519   29.965098   -8.168498 O    1643 MOH    -0.6497 ****
10165 HO1     4.875954   29.260461   -7.616954 H    1643 MOH     0.4215 ****
10166 HC1    15.689724   30.084306    3.381385 H    1644 MOH     0.0372 ****
10167 C1     14.858340   30.767714    3.211679 C    1644 MOH     0.1166 ****
10168 HC2    13.936312   30.307618    3.568768 H    1644 MOH     0.0372 ****
10169 HC3    14.787903   30.955917    2.140412 H    1644 MOH     0.0372 ****
10170 O1     15.186275   31.988376    3.863631 O    1644 MOH    -0.6497 ****
10171 HO1    15.799421   31.791193    4.575688 H    1644 MOH     0.4215 ****
10172 HC1     8.196295   32.313750   11.864545 H    1645 MOH     0.0372 ****
10173 C1      7.304866   32.940412   11.832725 C    1645 MOH     0.1166 ****
10174 HC2     6.416324   32.309668   11.792420 H    1645 MOH     0.0372 ****
10175 HC3     7.314104   33.558499   10.934699 H    1645 MOH     0.0372 ****
10176 O1      7.315259   33.787935   12.954196 O    1645 MOH    -0.6497 ****
10177 HO1     8.071010   34.368056   12.837523 H    1645 MOH     0.4215 ****
10178 HC1    15.449547   32.910609   -0.596091 H    1646 MOH     0.0372 ****
10179 C1     14.439761   32.589726   -0.852064 C    1646 MOH     0.1166 ****
10180 HC2    13.742322   33.020428   -0.132936 H    1646 MOH     0.0372 ****
10181 HC3    14.358355   31.503377   -0.817416 H    1646 MOH     0.0372 ****
10182 O1     14.084691   33.049005   -2.124149 O    1646 MOH    -0.6497 ****
10183 HO1    14.683403   32.641574   -2.753474 H    1646 MOH     0.4215 ****
10184 HC1     9.853291   33.575646   10.451038 H    1647 MOH     0.0372 ****
10185 C1     10.077880   34.641582   10.501243 C    1647 MOH     0.1166 ****
10186 HC2     9.718768   35.189451    9.630087 H    1647 MOH     0.0372 ****
10187 HC3    11.163876   34.688122   10.429118 H    1647 MOH     0.0372 ****
10188 O1      9.717036   35.239666   11.767671 O    1647 MOH    -0.6497 ****
10189 HO1     9.644867   36.188435   11.641806 H    1647 MOH     0.4215 ****
10190 HC1     4.095376   31.481740    6.900655 H    1648 MOH     0.0372 ****
10191 C1      4.440632   30.638708    6.303150 C    1648 MOH     0.1166 ****
10192 HC2     5.180795   30.106760    6.902069 H    1648 MOH     0.0372 ****
10193 HC3     4.882305   31.024502    5.384618 H    1648 MOH     0.0372 ****
10194 O1      3.388122   29.720965    5.969395 O    1648 MOH    -0.6497 ****
10195 HO1     3.666982   29.207797    5.207841 H    1648 MOH     0.4215 ****
10196 HC1     9.160470   19.802165   -2.843984 H    1649 MOH     0.0372 ****
10197 C1      9.127561   20.887289   -2.942978 C    1649 MOH     0.1166 ****
10198 HC2     9.572698   21.356366   -2.065459 H    1649 MOH     0.0372 ****
10199 HC3     8.090063   21.213071   -3.017932 H    1649 MOH     0.0372 ****
10200 O1      9.813454   21.264510   -4.108290 O    1649 MOH    -0.6497 ****
10201 HO1     9.915067   22.217770   -4.067985 H    1649 MOH     0.4215 ****
10202 HC1    17.593826   28.619103   -1.660994 H    1650 MOH     0.0372 ****
10203 C1     16.687963   28.943661   -2.172232 C    1650 MOH     0.1166 ****
10204 HC2    15.802308   28.550926   -1.673015 H    1650 MOH     0.0372 ****
10205 HC3    16.695469   28.595425   -3.205315 H    1650 MOH     0.0372 ****
10206 O1     16.595010   30.335787   -2.158090 O    1650 MOH    -0.6497 ****
10207 HO1    16.865210   30.621153   -1.281985 H    1650 MOH     0.4215 ****
10208 HC1    10.128109   33.182911    0.323855 H    1651 MOH     0.0372 ****
10209 C1     10.791485   32.361107    0.593262 C    1651 MOH     0.1166 ****
10210 HC2    11.807621   32.747310    0.671044 H    1651 MOH     0.0372 ****
10211 HC3    10.777628   31.578495   -0.165463 H    1651 MOH     0.0372 ****
10212 O1     10.413320   31.934079    1.880197 O    1651 MOH    -0.6497 ****
10213 HO1    10.467014   32.703219    2.451539 H    1651 MOH     0.4215 ****
10214 HC1     4.614414   32.145960   -4.553768 H    1652 MOH     0.0372 ****
10215 C1      3.983948   31.832426   -3.722210 C    1652 MOH     0.1166 ****
10216 HC2     3.007649   31.519707   -4.092734 H    1652 MOH     0.0372 ****
10217 HC3     3.813629   32.659537   -3.032074 H    1652 MOH     0.0372 ****
10218 O1      4.586124   30.778328   -3.026417 O    1652 MOH    -0.6497 ****
10219 HO1     3.935450   30.423969   -2.416891 H    1652 MOH     0.4215 ****
10220 HC1    -3.385351   26.810563   -1.356938 H    1653 MOH     0.0372 ****
10221 C1     -2.741605   27.594808   -1.753625 C    1653 MOH     0.1166 ****
10222 HC2    -2.707542   28.396200   -1.016113 H    1653 MOH     0.0372 ****
10223 HC3    -3.140554   28.034900   -2.668621 H    1653 MOH     0.0372 ****
10224 O1     -1.429866   27.130222   -1.984142 O    1653 MOH    -0.6497 ****
10225 HO1    -0.987615   27.917324   -2.309411 H    1653 MOH     0.4215 ****
10226 HC1     1.320054   27.885073    7.580892 H    1654 MOH     0.0372 ****
10227 C1      0.926878   28.319857    8.499423 C    1654 MOH     0.1166 ****
10228 HC2     0.742703   29.384569    8.358002 H    1654 MOH     0.0372 ****
10229 HC3     1.626049   28.175746    9.323203 H    1654 MOH     0.0372 ****
10230 O1     -0.237637   27.658903    8.828228 O    1654 MOH    -0.6497 ****
10231 HO1    -0.661990   28.108385    9.562912 H    1654 MOH     0.4215 ****
10232 HC1     3.106953   33.846314   -6.514575 H    1655 MOH     0.0372 ****
10233 C1      2.973585   32.823652   -6.867421 C    1655 MOH     0.1166 ****
10234 HC2     1.974769   32.746085   -7.295928 H    1655 MOH     0.0372 ****
10235 HC3     3.046908   32.106768   -6.050006 H    1655 MOH     0.0372 ****
10236 O1      3.893881   32.546452   -7.879291 O    1655 MOH    -0.6497 ****
10237 HO1     4.009929   31.598499   -7.971215 H    1655 MOH     0.4215 ****
10238 HC1     5.293956   24.571730   -7.556850 H    1656 MOH     0.0372 ****
10239 C1      4.557257   24.917516   -6.832066 C    1656 MOH     0.1166 ****
10240 HC2     4.286479   24.109593   -6.151122 H    1656 MOH     0.0372 ****
10241 HC3     3.648507   25.217170   -7.352496 H    1656 MOH     0.0372 ****
10242 O1      4.997198   25.998966   -6.037985 O    1656 MOH    -0.6497 ****
10243 HO1     5.944629   25.930380   -5.902220 H    1656 MOH     0.4215 ****
10244 HC1     4.131172   22.321057   -1.794637 H    1657 MOH     0.0372 ****
10245 C1      5.166361   22.625202   -1.950908 C    1657 MOH     0.1166 ****
10246 HC2     5.755258   21.722565   -2.118492 H    1657 MOH     0.0372 ****
10247 HC3     5.539329   23.182053   -1.092480 H    1657 MOH     0.0372 ****
10248 O1      5.164052   23.356783   -3.127533 O    1657 MOH    -0.6497 ****
10249 HO1     5.801446   24.065910   -3.017932 H    1657 MOH     0.4215 ****
10250 HC1    17.193722   27.513159    2.776101 H    1658 MOH     0.0372 ****
10251 C1     17.577660   28.110018    1.948786 C    1658 MOH     0.1166 ****
10252 HC2    18.265284   27.492746    1.370373 H    1658 MOH     0.0372 ****
10253 HC3    18.078800   28.971830    2.390728 H    1658 MOH     0.0372 ****
10254 O1     16.512449   28.549701    1.161776 O    1658 MOH    -0.6497 ****
10255 HO1    15.983018   27.793625    0.900147 H    1658 MOH     0.4215 ****
10256 HC1     9.246496   34.252113   -9.405227 H    1659 MOH     0.0372 ****
10257 C1      8.322158   34.767322   -9.666857 C    1659 MOH     0.1166 ****
10258 HC2     7.609130   34.720374   -8.843078 H    1659 MOH     0.0372 ****
10259 HC3     7.886258   34.321107  -10.559933 H    1659 MOH     0.0372 ****
10260 O1      8.560026   36.116583   -9.946164 O    1659 MOH    -0.6497 ****
10261 HO1     9.064630   36.146793  -10.762165 H    1659 MOH     0.4215 ****
10262 HC1     0.852400   28.390893   12.798633 H    1660 MOH     0.0372 ****
10263 C1      1.746715   27.948351   13.238453 C    1660 MOH     0.1166 ****
10264 HC2     1.812533   28.221470   14.291335 H    1660 MOH     0.0372 ****
10265 HC3     2.636989   28.318224   12.729336 H    1660 MOH     0.0372 ****
10266 O1      1.695331   26.535812   13.122487 O    1660 MOH    -0.6497 ****
10267 HO1     2.600616   26.227585   13.210876 H    1660 MOH     0.4215 ****
10268 HC1    -0.493981   24.032434   -8.865705 H    1661 MOH     0.0372 ****
10269 C1      0.019861   24.341478   -7.955659 C    1661 MOH     0.1166 ****
10270 HC2     1.102970   24.315350   -8.071624 H    1661 MOH     0.0372 ****
10271 HC3    -0.283248   23.702161   -7.125515 H    1661 MOH     0.0372 ****
10272 O1     -0.419503   25.598882   -7.672816 O    1661 MOH    -0.6497 ****
10273 HO1    -0.751479   25.960999   -8.498009 H    1661 MOH     0.4215 ****
10274 HC1     4.583237   32.133713   10.600945 H    1662 MOH     0.0372 ****
10275 C1      4.172741   31.177187   10.924092 C    1662 MOH     0.1166 ****
10276 HC2     4.951587   30.414579   10.945306 H    1662 MOH     0.0372 ****
10277 HC3     3.387545   30.898354   10.221935 H    1662 MOH     0.0372 ****
10278 O1      3.576916   31.321707   12.179914 O    1662 MOH    -0.6497 ****
10279 HO1     4.197567   31.770780   12.758327 H    1662 MOH     0.4215 ****
10280 HC1     1.357581   27.241265   -5.132181 H    1663 MOH     0.0372 ****
10281 C1      0.475390   27.824652   -4.871259 C    1663 MOH     0.1166 ****
10282 HC2     0.779654   28.823227   -4.560132 H    1663 MOH     0.0372 ****
10283 HC3    -0.059813   27.334754   -4.058086 H    1663 MOH     0.0372 ****
10284 O1     -0.345602   27.879766   -6.038692 O    1663 MOH    -0.6497 ****
10285 HO1    -0.436246   26.991009   -6.391538 H    1663 MOH     0.4215 ****
10286 HC1     3.087900   29.104102   -0.065761 H    1664 MOH     0.0372 ****
10287 C1      2.776131   30.147585   -0.101116 C    1664 MOH     0.1166 ****
10288 HC2     3.582112   30.804865    0.226981 H    1664 MOH     0.0372 ****
10289 HC3     1.933200   30.270876    0.577706 H    1664 MOH     0.0372 ****
10290 O1      2.322911   30.493779   -1.395122 O    1664 MOH    -0.6497 ****
10291 HO1     2.111601   31.429485   -1.365423 H    1664 MOH     0.4215 ****
10292 HC1    -1.186801   28.274950    0.750947 H    1665 MOH     0.0372 ****
10293 C1     -0.415461   27.981828    1.463711 C    1665 MOH     0.1166 ****
10294 HC2     0.482318   27.725448    0.900854 H    1665 MOH     0.0372 ****
10295 HC3    -0.745706   27.093479    2.002526 H    1665 MOH     0.0372 ****
10296 O1     -0.155076   29.059195    2.372343 O    1665 MOH    -0.6497 ****
10297 HO1    -0.821339   29.034292    3.063186 H    1665 MOH     0.4215 ****
10298 HC1    -1.316128   28.885689    6.634076 H    1666 MOH     0.0372 ****
10299 C1     -0.832886   28.735046    5.668875 C    1666 MOH     0.1166 ****
10300 HC2    -0.377356   27.745452    5.649076 H    1666 MOH     0.0372 ****
10301 HC3    -0.072515   29.504186    5.530282 H    1666 MOH     0.0372 ****
10302 O1     -1.864033   28.784444    4.682461 O    1666 MOH    -0.6497 ****
10303 HO1    -2.376720   29.585427    4.812569 H    1666 MOH     0.4215 ****
10304 HC1     8.118930   32.920816   -2.149605 H    1667 MOH     0.0372 ****
10305 C1      8.900663   33.594017   -2.501037 C    1667 MOH     0.1166 ****
10306 HC2     9.460115   33.159233   -3.329059 H    1667 MOH     0.0372 ****
10307 HC3     9.585977   33.798958   -1.679379 H    1667 MOH     0.0372 ****
10308 O1      8.326777   34.793450   -2.946514 O    1667 MOH    -0.6497 ****
10309 HO1     8.521921   35.436850   -2.260621 H    1667 MOH     0.4215 ****
10310 HC1   -21.776035  -18.149249  -16.083002 H    1668 MOH     0.0372 ****
10311 C1    -22.812379  -18.010445  -15.776118 C    1668 MOH     0.1166 ****
10312 HC2   -23.375873  -17.646288  -16.634546 H    1668 MOH     0.0372 ****
10313 HC3   -22.882239  -17.260493  -14.987694 H    1668 MOH     0.0372 ****
10314 O1    -23.337768  -19.253153  -15.358925 O    1668 MOH    -0.6497 ****
10315 HO1   -24.100448  -19.100876  -14.796775 H    1668 MOH     0.4215 ****
10316 HC1   -15.168262  -27.451187   -7.485291 H    1669 MOH     0.0372 ****
10317 C1    -15.107063  -26.671432   -6.727272 C    1669 MOH     0.1166 ****
10318 HC2   -14.746796  -27.117240   -5.799548 H    1669 MOH     0.0372 ****
10319 HC3   -16.100105  -26.246038   -6.581608 H    1669 MOH     0.0372 ****
10320 O1    -14.235841  -25.648770   -7.155072 O    1669 MOH    -0.6497 ****
10321 HO1   -13.349031  -26.008845   -7.221540 H    1669 MOH     0.4215 ****
10322 HC1    -8.909785  -22.702034  -13.265889 H    1670 MOH     0.0372 ****
10323 C1     -8.476195  -22.508933  -12.285132 C    1670 MOH     0.1166 ****
10324 HC2    -8.190406  -21.458102  -12.234220 H    1670 MOH     0.0372 ****
10325 HC3    -7.588230  -23.128246  -12.158560 H    1670 MOH     0.0372 ****
10326 O1     -9.430555  -22.823692  -11.277505 O    1670 MOH    -0.6497 ****
10327 HO1    -9.229637  -23.715307  -10.984762 H    1670 MOH     0.4215 ****
10328 HC1    -4.840043  -24.313390  -17.881175 H    1671 MOH     0.0372 ****
10329 C1     -5.034610  -23.572011  -17.106186 C    1671 MOH     0.1166 ****
10330 HC2    -6.098666  -23.529962  -16.873548 H    1671 MOH     0.0372 ****
10331 HC3    -4.733233  -22.583642  -17.453375 H    1671 MOH     0.0372 ****
10332 O1     -4.364883  -23.902284  -15.894912 O    1671 MOH    -0.6497 ****
10333 HO1    -4.582544  -24.796756  -15.622676 H    1671 MOH     0.4215 ****
10334 HC1   -20.726413  -19.600572  -11.413976 H    1672 MOH     0.0372 ****
10335 C1    -20.122504  -19.049029  -10.693434 C    1672 MOH     0.1166 ****
10336 HC2   -19.310750  -19.684263  -10.339881 H    1672 MOH     0.0372 ****
10337 HC3   -20.770869  -18.763255   -9.864705 H    1672 MOH     0.0372 ****
10338 O1    -19.617900  -17.925121  -11.348922 O    1672 MOH    -0.6497 ****
10339 HO1   -18.804991  -17.663434  -10.909809 H    1672 MOH     0.4215 ****
10340 HC1   -22.664578  -24.922088   -7.029207 H    1673 MOH     0.0372 ****
10341 C1    -23.684755  -25.214803   -6.781013 C    1673 MOH     0.1166 ****
10342 HC2   -23.845836  -25.157239   -5.705503 H    1673 MOH     0.0372 ****
10343 HC3   -23.893179  -26.237056   -7.097796 H    1673 MOH     0.0372 ****
10344 O1    -24.570988  -24.322372   -7.382053 O    1673 MOH    -0.6497 ****
10345 HO1   -24.119500  -23.945967   -8.141486 H    1673 MOH     0.4215 ****
10346 HC1    -9.957098  -19.949216  -16.352410 H    1674 MOH     0.0372 ****
10347 C1     -9.908601  -21.036790  -16.403322 C    1674 MOH     0.1166 ****
10348 HC2   -10.286765  -21.391557  -17.361451 H    1674 MOH     0.0372 ****
10349 HC3   -10.515396  -21.483413  -15.615605 H    1674 MOH     0.0372 ****
10350 O1     -8.572035  -21.471166  -16.329783 O    1674 MOH    -0.6497 ****
10351 HO1    -8.604366  -22.430549  -16.308569 H    1674 MOH     0.4215 ****
10352 HC1   -28.065689  -22.135386  -10.824956 H    1675 MOH     0.0372 ****
10353 C1    -27.025304  -22.108033  -11.150933 C    1675 MOH     0.1166 ****
10354 HC2   -26.441026  -22.747758  -10.488374 H    1675 MOH     0.0372 ****
10355 HC3   -26.684090  -21.074348  -11.097193 H    1675 MOH     0.0372 ****
10356 O1    -26.958331  -22.590174  -12.473929 O    1675 MOH    -0.6497 ****
10357 HO1   -27.553002  -23.342984  -12.517770 H    1675 MOH     0.4215 ****
10358 HC1    -5.161049  -22.283580  -14.099568 H    1676 MOH     0.0372 ****
10359 C1     -5.078488  -21.343792  -13.553681 C    1676 MOH     0.1166 ****
10360 HC2    -5.905254  -20.688146  -13.826624 H    1676 MOH     0.0372 ****
10361 HC3    -4.121242  -20.881655  -13.798340 H    1676 MOH     0.0372 ****
10362 O1     -5.119480  -21.701826  -12.212300 O    1676 MOH    -0.6497 ****
10363 HO1    -4.895468  -20.958814  -11.648028 H    1676 MOH     0.4215 ****
10364 HC1   -17.253651  -17.659351  -14.356248 H    1677 MOH     0.0372 ****
10365 C1    -17.919336  -16.800397  -14.271395 C    1677 MOH     0.1166 ****
10366 HC2   -18.961453  -17.120464  -14.278466 H    1677 MOH     0.0372 ****
10367 HC3   -17.784236  -16.175777  -15.153864 H    1677 MOH     0.0372 ****
10368 O1    -17.693592  -16.003496  -13.067899 O    1677 MOH    -0.6497 ****
10369 HO1   -17.766338  -16.570553  -12.297860 H    1677 MOH     0.4215 ****
10370 HC1   -17.179173  -28.313407   -5.406397 H    1678 MOH     0.0372 ****
10371 C1    -16.879528  -29.360564   -5.421246 C    1678 MOH     0.1166 ****
10372 HC2   -16.245597  -29.549175   -6.288159 H    1678 MOH     0.0372 ****
10373 HC3   -17.747285  -30.014578   -5.500442 H    1678 MOH     0.0372 ****
10374 O1    -16.174583  -29.671649   -4.227650 O    1678 MOH    -0.6497 ****
10375 HO1   -15.740416  -30.519989   -4.346444 H    1678 MOH     0.4215 ****
10376 HC1   -20.313030  -13.405404  -11.622573 H    1679 MOH     0.0372 ****
10377 C1    -20.767405  -13.107383  -12.567268 C    1679 MOH     0.1166 ****
10378 HC2   -21.848204  -13.242105  -12.519184 H    1679 MOH     0.0372 ****
10379 HC3   -20.344784  -13.732003  -13.354984 H    1679 MOH     0.0372 ****
10380 O1    -20.485658  -11.749957  -12.826776 O    1679 MOH    -0.6497 ****
10381 HO1   -20.755280  -11.555631  -13.727630 H    1679 MOH     0.4215 ****
10382 HC1   -19.272067  -10.491736   -8.499282 H    1680 MOH     0.0372 ****
10383 C1    -19.613859  -11.161263   -9.288413 C    1680 MOH     0.1166 ****
10384 HC2   -20.112112  -12.037364   -8.872635 H    1680 MOH     0.0372 ****
10385 HC3   -18.741482  -11.479289   -9.859049 H    1680 MOH     0.0372 ****
10386 O1    -20.395014  -10.431315  -10.210481 O    1680 MOH    -0.6497 ****
10387 HO1   -20.367878  -10.918356  -11.037088 H    1680 MOH     0.4215 ****
10388 HC1   -16.505405  -27.197664  -12.830311 H    1681 MOH     0.0372 ****
10389 C1    -16.645701  -27.351982  -13.899457 C    1681 MOH     0.1166 ****
10390 HC2   -16.842000  -26.397498  -14.388774 H    1681 MOH     0.0372 ****
10391 HC3   -17.479972  -28.030899  -14.075526 H    1681 MOH     0.0372 ****
10392 O1    -15.470216  -27.906384  -14.451000 O    1681 MOH    -0.6497 ****
10393 HO1   -14.823584  -28.007221  -13.748843 H    1681 MOH     0.4215 ****
10394 HC1   -13.742206  -19.161297  -11.539841 H    1682 MOH     0.0372 ****
10395 C1    -13.259542  -20.127212  -11.686919 C    1682 MOH     0.1166 ****
10396 HC2   -14.032614  -20.881247  -11.834705 H    1682 MOH     0.0372 ****
10397 HC3   -12.694893  -20.369712  -10.787480 H    1682 MOH     0.0372 ****
10398 O1    -12.351370  -20.099451  -12.809805 O    1682 MOH    -0.6497 ****
10399 HO1   -11.640074  -19.495244  -12.580702 H    1682 MOH     0.4215 ****
10400 HC1   -10.043701  -33.286688  -12.584945 H    1683 MOH     0.0372 ****
10401 C1    -10.209978  -33.199731  -11.510850 C    1683 MOH     0.1166 ****
10402 HC2   -10.137809  -32.143593  -11.251342 H    1683 MOH     0.0372 ****
10403 HC3    -9.423049  -33.753724  -10.998197 H    1683 MOH     0.0372 ****
10404 O1    -11.535574  -33.718614  -11.276797 O    1683 MOH    -0.6497 ****
10405 HO1   -11.846766  -33.369970  -10.438169 H    1683 MOH     0.4215 ****
10406 HC1   -15.247936  -14.359889  -20.411910 H    1684 MOH     0.0372 ****
10407 C1    -15.828750  -13.978585  -19.571867 C    1684 MOH     0.1166 ****
10408 HC2   -15.531415  -12.971436  -19.279832 H    1684 MOH     0.0372 ****
10409 HC3   -15.620904  -14.633823  -18.725460 H    1684 MOH     0.0372 ****
10410 O1    -17.208040  -14.022267  -19.856831 O    1684 MOH    -0.6497 ****
10411 HO1   -17.613340  -14.697102  -19.307409 H    1684 MOH     0.4215 ****
10412 HC1   -10.450155  -27.148675  -13.766520 H    1685 MOH     0.0372 ****
10413 C1    -10.466898  -28.155823  -14.184421 C    1685 MOH     0.1166 ****
10414 HC2    -9.965181  -28.814328  -13.476607 H    1685 MOH     0.0372 ****
10415 HC3    -9.915529  -28.184401  -15.124873 H    1685 MOH     0.0372 ****
10416 O1    -11.809815  -28.591424  -14.333620 O    1685 MOH    -0.6497 ****
10417 HO1   -12.301718  -28.330554  -13.550853 H    1685 MOH     0.4215 ****
10418 HC1   -16.315457  -23.357681  -14.634848 H    1686 MOH     0.0372 ****
10419 C1    -17.378936  -23.156823  -14.766369 C    1686 MOH     0.1166 ****
10420 HC2   -17.960905  -24.077831  -14.739499 H    1686 MOH     0.0372 ****
10421 HC3   -17.544058  -22.686113  -15.735813 H    1686 MOH     0.0372 ****
10422 O1    -17.829269  -22.266433  -13.787027 O    1686 MOH    -0.6497 ****
10423 HO1   -17.718995  -21.371961  -14.117245 H    1686 MOH     0.4215 ****
10424 HC1   -12.602517  -20.430133  -17.431455 H    1687 MOH     0.0372 ****
10425 C1    -13.006662  -20.084346  -18.382514 C    1687 MOH     0.1166 ****
10426 HC2   -13.939660  -20.607721  -18.594646 H    1687 MOH     0.0372 ****
10427 HC3   -12.285552  -20.229274  -19.186494 H    1687 MOH     0.0372 ****
10428 O1    -13.253191  -18.718348  -18.228364 O    1687 MOH    -0.6497 ****
10429 HO1   -12.428735  -18.262742  -18.040274 H    1687 MOH     0.4215 ****
10430 HC1   -15.650349  -28.110916  -10.808693 H    1688 MOH     0.0372 ****
10431 C1    -14.896330  -28.864542  -11.036381 C    1688 MOH     0.1166 ****
10432 HC2   -15.382459  -29.754115  -11.435896 H    1688 MOH     0.0372 ****
10433 HC3   -14.407314  -29.153990  -10.106536 H    1688 MOH     0.0372 ****
10434 O1    -13.962177  -28.322389  -11.981076 O    1688 MOH    -0.6497 ****
10435 HO1   -13.745671  -27.424651  -11.721568 H    1688 MOH     0.4215 ****
10436 HC1   -10.362975  -18.542801  -19.098106 H    1689 MOH     0.0372 ****
10437 C1     -9.942664  -17.659351  -18.617273 C    1689 MOH     0.1166 ****
10438 HC2    -9.689208  -16.917564  -19.374584 H    1689 MOH     0.0372 ****
10439 HC3    -9.055854  -17.942268  -18.050880 H    1689 MOH     0.0372 ****
10440 O1    -10.947831  -17.162922  -17.794201 O    1689 MOH    -0.6497 ****
10441 HO1   -10.591606  -16.966554  -16.925166 H    1689 MOH     0.4215 ****
10442 HC1   -16.011770  -16.234973   -6.522212 H    1690 MOH     0.0372 ****
10443 C1    -16.054494  -15.360914   -7.172043 C    1690 MOH     0.1166 ****
10444 HC2   -15.253710  -14.660768   -6.933748 H    1690 MOH     0.0372 ****
10445 HC3   -16.993843  -14.844888   -6.976881 H    1690 MOH     0.0372 ****
10446 O1    -16.053917  -15.715273   -8.563629 O    1690 MOH    -0.6497 ****
10447 HO1   -15.944798  -14.922863   -9.094666 H    1690 MOH     0.4215 ****
10448 HC1   -10.903375  -28.081114   -5.994003 H    1691 MOH     0.0372 ****
10449 C1    -10.828320  -27.039264   -6.303715 C    1691 MOH     0.1166 ****
10450 HC2    -9.789667  -26.814728   -6.546960 H    1691 MOH     0.0372 ****
10451 HC3   -11.190318  -26.437914   -5.468622 H    1691 MOH     0.0372 ****
10452 O1    -11.716284  -26.881680   -7.379932 O    1691 MOH    -0.6497 ****
10453 HO1   -11.349090  -27.402197   -8.097645 H    1691 MOH     0.4215 ****
10454 HC1   -23.238464  -19.764280  -12.439988 H    1692 MOH     0.0372 ****
10455 C1    -23.478064  -20.397064  -11.585803 C    1692 MOH     0.1166 ****
10456 HC2   -24.523645  -20.272549  -11.305082 H    1692 MOH     0.0372 ****
10457 HC3   -22.845866  -20.089653  -10.752124 H    1692 MOH     0.0372 ****
10458 O1    -23.176110  -21.747142  -11.901880 O    1692 MOH    -0.6497 ****
10459 HO1   -23.638567  -22.020260  -12.697375 H    1692 MOH     0.4215 ****
10460 HC1   -14.003169  -31.390783   -9.919152 H    1693 MOH     0.0372 ****
10461 C1    -13.752021  -31.911299   -8.994964 C    1693 MOH     0.1166 ****
10462 HC2   -14.418861  -32.764946   -8.874049 H    1693 MOH     0.0372 ****
10463 HC3   -13.874997  -31.241364   -8.144314 H    1693 MOH     0.0372 ****
10464 O1    -12.411991  -32.342001   -9.091837 O    1693 MOH    -0.6497 ****
10465 HO1   -12.222043  -32.897627   -8.333112 H    1693 MOH     0.4215 ****
10466 HC1   -22.476939  -25.162547  -10.698384 H    1694 MOH     0.0372 ****
10467 C1    -23.486724  -24.763280  -10.606460 C    1694 MOH     0.1166 ****
10468 HC2   -24.099293  -25.504659  -10.093101 H    1694 MOH     0.0372 ****
10469 HC3   -23.887983  -24.571403  -11.602067 H    1694 MOH     0.0372 ****
10470 O1    -23.418597  -23.574461   -9.844199 O    1694 MOH    -0.6497 ****
10471 HO1   -23.084311  -22.881255  -10.418370 H    1694 MOH     0.4215 ****
10472 HC1   -26.733165  -17.926346  -12.274525 H    1695 MOH     0.0372 ****
10473 C1    -25.870604  -17.463392  -12.753944 C    1695 MOH     0.1166 ****
10474 HC2   -25.083675  -17.348674  -12.007946 H    1695 MOH     0.0372 ****
10475 HC3   -26.187569  -16.471349  -13.076384 H    1695 MOH     0.0372 ****
10476 O1    -25.487820  -18.250903  -13.912892 O    1695 MOH    -0.6497 ****
10477 HO1   -26.181795  -18.204771  -14.574037 H    1695 MOH     0.4215 ****
10478 HC1   -20.046871  -22.488929   -6.013802 H    1696 MOH     0.0372 ****
10479 C1    -19.438922  -21.618135   -6.261996 C    1696 MOH     0.1166 ****
10480 HC2   -18.389299  -21.887579   -6.376548 H    1696 MOH     0.0372 ****
10481 HC3   -19.495502  -20.895944   -5.446702 H    1696 MOH     0.0372 ****
10482 O1    -19.833829  -21.055977   -7.471856 O    1696 MOH    -0.6497 ****
10483 HO1   -19.552082  -21.654469   -8.167649 H    1696 MOH     0.4215 ****
10484 HC1   -14.466204  -16.239056  -16.701721 H    1697 MOH     0.0372 ****
10485 C1    -15.481185  -16.622401  -16.805665 C    1697 MOH     0.1166 ****
10486 HC2   -16.202296  -15.805088  -16.784452 H    1697 MOH     0.0372 ****
10487 HC3   -15.716167  -17.317239  -15.999564 H    1697 MOH     0.0372 ****
10488 O1    -15.608780  -17.334386  -17.987948 O    1697 MOH    -0.6497 ****
10489 HO1   -14.888247  -17.967579  -18.019768 H    1697 MOH     0.4215 ****
10490 HC1   -11.592154  -24.521189   -9.441855 H    1698 MOH     0.0372 ****
10491 C1    -12.214538  -23.626717   -9.451048 C    1698 MOH     0.1166 ****
10492 HC2   -11.770555  -22.839614   -8.841522 H    1698 MOH     0.0372 ****
10493 HC3   -13.186218  -23.904734   -9.041633 H    1698 MOH     0.0372 ****
10494 O1    -12.394094  -23.173969  -10.772630 O    1698 MOH    -0.6497 ****
10495 HO1   -11.536728  -22.898402  -11.105678 H    1698 MOH     0.4215 ****
10496 HC1   -19.851727  -18.553415  -15.259930 H    1699 MOH     0.0372 ****
10497 C1    -19.670439  -19.591591  -14.980623 C    1699 MOH     0.1166 ****
10498 HC2   -20.329773  -20.228866  -15.569643 H    1699 MOH     0.0372 ****
10499 HC3   -19.895028  -19.746317  -13.924912 H    1699 MOH     0.0372 ****
10500 O1    -18.340224  -19.987183  -15.221746 O    1699 MOH    -0.6497 ****
10501 HO1   -18.160668  -19.878997  -16.158663 H    1699 MOH     0.4215 ****
10502 HC1   -15.963273  -24.341559  -11.601360 H    1700 MOH     0.0372 ****
10503 C1    -15.509476  -23.462193  -11.144569 C    1700 MOH     0.1166 ****
10504 HC2   -14.672318  -23.145392  -11.766823 H    1700 MOH     0.0372 ****
10505 HC3   -15.205789  -23.711224  -10.127749 H    1700 MOH     0.0372 ****
10506 O1    -16.459794  -22.464434  -11.179924 O    1700 MOH    -0.6497 ****
10507 HO1   -16.787729  -22.408912  -12.080778 H    1700 MOH     0.4215 ****
10508 HC1   -24.130470  -12.868966  -13.930569 H    1701 MOH     0.0372 ****
10509 C1    -25.038064  -12.932653  -13.330943 C    1701 MOH     0.1166 ****
10510 HC2   -25.648901  -13.779360  -13.643484 H    1701 MOH     0.0372 ****
10511 HC3   -25.587125  -12.000622  -13.463172 H    1701 MOH     0.0372 ****
10512 O1    -24.666251  -13.115956  -12.006532 O    1701 MOH    -0.6497 ****
10513 HO1   -24.139130  -13.918572  -12.007946 H    1701 MOH     0.4215 ****
10514 HC1    -8.600325  -21.022501   -6.224520 H    1702 MOH     0.0372 ****
10515 C1     -8.853204  -20.157831   -5.610751 C    1702 MOH     0.1166 ****
10516 HC2    -8.045491  -19.974527   -4.902937 H    1702 MOH     0.0372 ****
10517 HC3    -9.771191  -20.390532   -5.071935 H    1702 MOH     0.0372 ****
10518 O1     -9.045462  -19.049437   -6.467057 O    1702 MOH    -0.6497 ****
10519 HO1    -9.730777  -19.320514   -7.082240 H    1702 MOH     0.4215 ****
10520 HC1   -12.340977  -28.281972   -9.758639 H    1703 MOH     0.0372 ****
10521 C1    -11.518253  -28.972728   -9.943901 C    1703 MOH     0.1166 ****
10522 HC2   -11.242857  -28.851478  -10.991126 H    1703 MOH     0.0372 ****
10523 HC3   -11.826558  -30.012536   -9.837128 H    1703 MOH     0.0372 ****
10524 O1    -10.428216  -28.662051   -9.059311 O    1703 MOH    -0.6497 ****
10525 HO1    -9.817379  -29.402613   -9.046583 H    1703 MOH     0.4215 ****
10526 HC1    -7.506824  -27.324221  -10.823542 H    1704 MOH     0.0372 ****
10527 C1     -8.338208  -26.640814  -10.993248 C    1704 MOH     0.1166 ****
10528 HC2    -9.260236  -27.100910  -10.636159 H    1704 MOH     0.0372 ****
10529 HC3    -8.408645  -26.452611  -12.064514 H    1704 MOH     0.0372 ****
10530 O1     -8.010273  -25.420151  -10.341295 O    1704 MOH    -0.6497 ****
10531 HO1    -7.397127  -25.617335   -9.629239 H    1704 MOH     0.4215 ****
10532 HC1   -15.000253  -25.094777   -2.340382 H    1705 MOH     0.0372 ****
10533 C1    -15.891682  -24.468116   -2.372202 C    1705 MOH     0.1166 ****
10534 HC2   -16.780224  -25.098860   -2.412507 H    1705 MOH     0.0372 ****
10535 HC3   -15.882444  -23.850028   -3.270227 H    1705 MOH     0.0372 ****
10536 O1    -15.881289  -23.620593   -1.250730 O    1705 MOH    -0.6497 ****
10537 HO1   -15.125538  -23.040472   -1.367403 H    1705 MOH     0.4215 ****
10538 HC1    -7.747001  -24.497919  -14.801018 H    1706 MOH     0.0372 ****
10539 C1     -8.756787  -24.818802  -15.056990 C    1706 MOH     0.1166 ****
10540 HC2    -9.454226  -24.388100  -14.337863 H    1706 MOH     0.0372 ****
10541 HC3    -8.838193  -25.905150  -15.022342 H    1706 MOH     0.0372 ****
10542 O1     -9.111857  -24.359522  -16.329075 O    1706 MOH    -0.6497 ****
10543 HO1    -8.513145  -24.766954  -16.958400 H    1706 MOH     0.4215 ****
10544 HC1   -13.343258  -23.832882   -3.753888 H    1707 MOH     0.0372 ****
10545 C1    -13.118668  -22.766946   -3.703684 C    1707 MOH     0.1166 ****
10546 HC2   -13.477780  -22.219077   -4.574839 H    1707 MOH     0.0372 ****
10547 HC3   -12.032672  -22.720405   -3.775809 H    1707 MOH     0.0372 ****
10548 O1    -13.479512  -22.168862   -2.437256 O    1707 MOH    -0.6497 ****
10549 HO1   -13.551681  -21.220093   -2.563121 H    1707 MOH     0.4215 ****
10550 HC1   -19.101172  -25.926788   -7.304272 H    1708 MOH     0.0372 ****
10551 C1    -18.755916  -26.769820   -7.901777 C    1708 MOH     0.1166 ****
10552 HC2   -18.015753  -27.301768   -7.302857 H    1708 MOH     0.0372 ****
10553 HC3   -18.314243  -26.384026   -8.820309 H    1708 MOH     0.0372 ****
10554 O1    -19.808426  -27.687562   -8.235531 O    1708 MOH    -0.6497 ****
10555 HO1   -19.529566  -28.200731   -8.997085 H    1708 MOH     0.4215 ****
10556 HC1   -11.943760  -17.389499  -13.526811 H    1709 MOH     0.0372 ****
10557 C1    -12.436240  -16.953082  -14.395846 C    1709 MOH     0.1166 ****
10558 HC2   -13.378476  -16.465633  -14.145530 H    1709 MOH     0.0372 ****
10559 HC3   -12.688542  -17.787541  -15.050626 H    1709 MOH     0.0372 ****
10560 O1    -11.598505  -16.027991  -15.095881 O    1709 MOH    -0.6497 ****
10561 HO1   -12.139482  -15.328254  -15.467819 H    1709 MOH     0.4215 ****
10562 HC1    -5.602722  -28.789425  -15.865920 H    1710 MOH     0.0372 ****
10563 C1     -6.508585  -28.464867  -16.377159 C    1710 MOH     0.1166 ****
10564 HC2    -7.394240  -28.857602  -15.877941 H    1710 MOH     0.0372 ****
10565 HC3    -6.501079  -28.813103  -17.410242 H    1710 MOH     0.0372 ****
10566 O1     -6.601538  -27.072741  -16.363016 O    1710 MOH    -0.6497 ****
10567 HO1    -6.331338  -26.787375  -15.486911 H    1710 MOH     0.4215 ****
10568 HC1   -13.068439  -24.225617  -13.881072 H    1711 MOH     0.0372 ****
10569 C1    -12.405063  -25.047421  -13.611664 C    1711 MOH     0.1166 ****
10570 HC2   -11.388927  -24.661218  -13.533882 H    1711 MOH     0.0372 ****
10571 HC3   -12.418920  -25.830033  -14.370390 H    1711 MOH     0.0372 ****
10572 O1    -12.783228  -25.474448  -12.324730 O    1711 MOH    -0.6497 ****
10573 HO1   -12.729534  -24.705309  -11.753387 H    1711 MOH     0.4215 ****
10574 HC1    -9.288527  -18.026367   -9.777731 H    1712 MOH     0.0372 ****
10575 C1     -9.628008  -18.772236  -10.496859 C    1712 MOH     0.1166 ****
10576 HC2   -10.134345  -19.609554  -10.015319 H    1712 MOH     0.0372 ****
10577 HC3    -8.741198  -19.169054  -10.991833 H    1712 MOH     0.0372 ****
10578 O1    -10.469208  -18.151699  -11.451453 O    1712 MOH    -0.6497 ****
10579 HO1    -9.939778  -17.466658  -11.867232 H    1712 MOH     0.4215 ****
10580 HC1   -15.919972  -20.530153  -15.614898 H    1713 MOH     0.0372 ****
10581 C1    -15.263524  -20.254586  -14.789704 C    1713 MOH     0.1166 ****
10582 HC2   -15.810275  -20.290512  -13.846424 H    1713 MOH     0.0372 ****
10583 HC3   -14.917114  -19.231924  -14.940318 H    1713 MOH     0.0372 ****
10584 O1    -14.144620  -21.126604  -14.724650 O    1713 MOH    -0.6497 ****
10585 HO1   -13.539556  -20.800006  -14.054313 H    1713 MOH     0.4215 ****
10586 HC1   -12.143524  -15.815294   -7.847330 H    1714 MOH     0.0372 ****
10587 C1    -12.455293  -16.234157   -6.889907 C    1714 MOH     0.1166 ****
10588 HC2   -12.982414  -15.487879   -6.297352 H    1714 MOH     0.0372 ****
10589 HC3   -11.562709  -16.567695   -6.361698 H    1714 MOH     0.0372 ****
10590 O1    -13.269934  -17.348266   -7.116888 O    1714 MOH    -0.6497 ****
10591 HO1   -13.955826  -17.106991   -7.742678 H    1714 MOH     0.4215 ****
10592 HC1   -19.463748  -10.421109  -15.566814 H    1715 MOH     0.0372 ****
10593 C1    -20.371342  -10.041438  -16.036333 C    1715 MOH     0.1166 ****
10594 HC2   -20.240861  -10.061443  -17.118914 H    1715 MOH     0.0372 ****
10595 HC3   -20.514525   -9.010611  -15.714600 H    1715 MOH     0.0372 ****
10596 O1    -21.511609  -10.834665  -15.662274 O    1715 MOH    -0.6497 ****
10597 HO1   -22.284681  -10.329662  -15.924611 H    1715 MOH     0.4215 ****
10598 HC1   -17.306190  -18.891037   -9.055068 H    1716 MOH     0.0372 ****
10599 C1    -16.724221  -18.648537   -9.944608 C    1716 MOH     0.1166 ****
10600 HC2   -16.760594  -19.470341  -10.659493 H    1716 MOH     0.0372 ****
10601 HC3   -15.697114  -18.505242   -9.607318 H    1716 MOH     0.0372 ****
10602 O1    -17.190142  -17.404196  -10.476353 O    1716 MOH    -0.6497 ****
10603 HO1   -16.774450  -16.726912   -9.938244 H    1716 MOH     0.4215 ****
10604 HC1   -19.811890  -23.457294  -11.383571 H    1717 MOH     0.0372 ****
10605 C1    -19.649077  -23.681422  -10.329274 C    1717 MOH     0.1166 ****
10606 HC2   -19.081542  -24.608146  -10.237351 H    1717 MOH     0.0372 ****
10607 HC3   -20.632882  -23.798997   -9.875312 H    1717 MOH     0.0372 ****
10608 O1    -18.956257  -22.604871   -9.737426 O    1717 MOH    -0.6497 ****
10609 HO1   -18.117944  -22.514240  -10.195631 H    1717 MOH     0.4215 ****
10610 HC1    -6.002826  -29.895369  -11.428825 H    1718 MOH     0.0372 ****
10611 C1     -5.618888  -29.298510  -12.256140 C    1718 MOH     0.1166 ****
10612 HC2    -4.931264  -29.915782  -12.834554 H    1718 MOH     0.0372 ****
10613 HC3    -5.117748  -28.436698  -11.814199 H    1718 MOH     0.0372 ****
10614 O1     -6.684099  -28.858827  -13.043150 O    1718 MOH    -0.6497 ****
10615 HO1    -7.213530  -29.614903  -13.304780 H    1718 MOH     0.4215 ****
10616 HC1   -15.536611  -20.899210   -6.828389 H    1719 MOH     0.0372 ****
10617 C1    -15.473103  -21.822259   -7.404681 C    1719 MOH     0.1166 ****
10618 HC2   -14.441378  -22.026383   -7.690352 H    1719 MOH     0.0372 ****
10619 HC3   -16.090290  -21.710399   -8.295635 H    1719 MOH     0.0372 ****
10620 O1    -15.990986  -22.875540   -6.639591 O    1719 MOH    -0.6497 ****
10621 HO1   -15.740993  -23.700201   -7.063855 H    1719 MOH     0.4215 ****
10622 HC1   -20.924444  -15.275590  -18.159775 H    1720 MOH     0.0372 ****
10623 C1    -20.053222  -15.930828  -18.178867 C    1720 MOH     0.1166 ****
10624 HC2   -20.053800  -16.502376  -19.106591 H    1720 MOH     0.0372 ****
10625 HC3   -20.080935  -16.639955  -17.350845 H    1720 MOH     0.0372 ****
10626 O1    -18.874850  -15.146175  -18.105328 O    1720 MOH    -0.6497 ****
10627 HO1   -18.904295  -14.635456  -17.292862 H    1720 MOH     0.4215 ****
10628 HC1    -6.110791  -24.438723  -12.693132 H    1721 MOH     0.0372 ****
10629 C1     -5.470509  -25.314007  -12.584238 C    1721 MOH     0.1166 ****
10630 HC2    -5.620620  -25.714907  -11.581560 H    1721 MOH     0.0372 ****
10631 HC3    -4.431856  -25.001289  -12.690304 H    1721 MOH     0.0372 ****
10632 O1     -5.849828  -26.255836  -13.587622 O    1721 MOH    -0.6497 ****
10633 HO1    -5.920842  -27.129079  -13.195178 H    1721 MOH     0.4215 ****
10634 HC1    -7.975055  -22.225200   -8.272301 H    1722 MOH     0.0372 ****
10635 C1     -7.116535  -21.863492   -8.837986 C    1722 MOH     0.1166 ****
10636 HC2    -7.464677  -21.344200   -9.730355 H    1722 MOH     0.0372 ****
10637 HC3    -6.487223  -22.704076   -9.131435 H    1722 MOH     0.0372 ****
10638 O1     -6.367134  -20.973919   -8.042491 O    1722 MOH    -0.6497 ****
10639 HO1    -6.199703  -21.392374   -7.194670 H    1722 MOH     0.4215 ****
10640 HC1    -7.176002  -20.904109  -18.204323 H    1723 MOH     0.0372 ****
10641 C1     -7.622871  -20.490145  -19.108005 C    1723 MOH     0.1166 ****
10642 HC2    -8.650554  -20.171303  -18.936178 H    1723 MOH     0.0372 ****
10643 HC3    -7.592271  -21.262551  -19.877337 H    1723 MOH     0.0372 ****
10644 O1     -6.812271  -19.425842  -19.496207 O    1723 MOH    -0.6497 ****
10645 HO1    -6.630406  -18.879606  -18.728289 H    1723 MOH     0.4215 ****
10646 HC1   -22.228101  -15.963080  -13.557924 H    1724 MOH     0.0372 ****
10647 C1    -22.598760  -16.359897  -12.613229 C    1724 MOH     0.1166 ****
10648 HC2   -21.744281  -16.482780  -11.947842 H    1724 MOH     0.0372 ****
10649 HC3   -23.070455  -17.335611  -12.729195 H    1724 MOH     0.0372 ****
10650 O1    -23.453815  -15.424600  -12.051080 O    1724 MOH    -0.6497 ****
10651 HO1   -23.269063  -15.422967  -11.109213 H    1724 MOH     0.4215 ****
10652 HC1   -22.939974  -20.637931   -7.819753 H    1725 MOH     0.0372 ****
10653 C1    -23.006369  -20.898393   -6.763335 C    1725 MOH     0.1166 ****
10654 HC2   -22.898404  -21.976577   -6.639591 H    1725 MOH     0.0372 ****
10655 HC3   -23.990174  -20.583634   -6.414731 H    1725 MOH     0.0372 ****
10656 O1    -22.022564  -20.179468   -6.039965 O    1725 MOH    -0.6497 ****
10657 HO1   -21.199840  -20.288470   -6.522919 H    1725 MOH     0.4215 ****
10658 HC1   -15.393428  -18.076989   -2.971121 H    1726 MOH     0.0372 ****
10659 C1    -14.955797  -18.980443   -3.396092 C    1726 MOH     0.1166 ****
10660 HC2   -14.712155  -18.785300   -4.439782 H    1726 MOH     0.0372 ****
10661 HC3   -15.661319  -19.806737   -3.302754 H    1726 MOH     0.0372 ****
10662 O1    -13.819571  -19.278056   -2.648681 O    1726 MOH    -0.6497 ****
10663 HO1   -13.191992  -18.552190   -2.696764 H    1726 MOH     0.4215 ****
10664 HC1   -18.613311  -25.274815   -3.603982 H    1727 MOH     0.0372 ****
10665 C1    -19.023807  -26.231341   -3.280834 C    1727 MOH     0.1166 ****
10666 HC2   -18.244961  -26.993949   -3.259621 H    1727 MOH     0.0372 ****
10667 HC3   -19.809003  -26.510174   -3.982991 H    1727 MOH     0.0372 ****
10668 O1    -19.619632  -26.086821   -2.025012 O    1727 MOH    -0.6497 ****
10669 HO1   -18.998981  -25.637748   -1.446599 H    1727 MOH     0.4215 ****
10670 HC1   -22.230410  -14.549316  -16.633132 H    1728 MOH     0.0372 ****
10671 C1    -21.664029  -14.244355  -15.752784 C    1728 MOH     0.1166 ****
10672 HC2   -21.278359  -15.138010  -15.261344 H    1728 MOH     0.0372 ****
10673 HC3   -22.318167  -13.720572  -15.056283 H    1728 MOH     0.0372 ****
10674 O1    -20.569373  -13.429899  -16.157956 O    1728 MOH    -0.6497 ****
10675 HO1   -20.920402  -12.554615  -16.334732 H    1728 MOH     0.4215 ****
10676 HC1   -13.412540  -20.290920   -6.773234 H    1729 MOH     0.0372 ****
10677 C1    -12.487047  -19.991266   -6.279674 C    1729 MOH     0.1166 ****
10678 HC2   -12.043065  -20.845321   -5.767729 H    1729 MOH     0.0372 ****
10679 HC3   -12.732998  -19.239272   -5.530141 H    1729 MOH     0.0372 ****
10680 O1    -11.604856  -19.491978   -7.305686 O    1729 MOH    -0.6497 ****
10681 HO1   -11.795381  -18.553823   -7.380639 H    1729 MOH     0.4215 ****
10682 HC1   -14.995634  -16.421951  -11.425290 H    1730 MOH     0.0372 ****
10683 C1    -14.049934  -16.079022  -11.005269 C    1730 MOH     0.1166 ****
10684 HC2   -14.163672  -15.104534  -10.529386 H    1730 MOH     0.0372 ****
10685 HC3   -13.320163  -15.965529  -11.807128 H    1730 MOH     0.0372 ****
10686 O1    -13.608261  -17.001255  -10.032997 O    1730 MOH    -0.6497 ****
10687 HO1   -12.776877  -17.389499  -10.315132 H    1730 MOH     0.4215 ****
10688 HC1   -15.077618  -24.487712  -16.354531 H    1731 MOH     0.0372 ****
10689 C1    -14.295885  -23.814511  -16.705963 C    1731 MOH     0.1166 ****
10690 HC2   -13.736433  -24.249295  -17.533985 H    1731 MOH     0.0372 ****
10691 HC3   -13.610571  -23.609570  -15.884305 H    1731 MOH     0.0372 ****
10692 O1    -14.869771  -22.615077  -17.151441 O    1731 MOH    -0.6497 ****
10693 HO1   -14.674627  -21.971678  -16.465547 H    1731 MOH     0.4215 ****
10694 HC1   -10.177761   -1.746813  -16.083002 H    1732 MOH     0.0372 ****
10695 C1    -11.214105   -1.608008  -15.776118 C    1732 MOH     0.1166 ****
10696 HC2   -11.777599   -1.243851  -16.634546 H    1732 MOH     0.0372 ****
10697 HC3   -11.283964   -0.858056  -14.987694 H    1732 MOH     0.0372 ****
10698 O1    -11.739494   -2.850716  -15.358925 O    1732 MOH    -0.6497 ****
10699 HO1   -12.502174   -2.698440  -14.796775 H    1732 MOH     0.4215 ****
10700 HC1   -15.679332  -12.287784  -11.991683 H    1733 MOH     0.0372 ****
10701 C1    -16.480117  -12.681743  -11.365893 C    1733 MOH     0.1166 ****
10702 HC2   -17.045920  -13.412100  -11.945014 H    1733 MOH     0.0372 ****
10703 HC3   -17.152730  -11.904847  -11.004561 H    1733 MOH     0.0372 ****
10704 O1    -15.983018  -13.422714  -10.321496 O    1733 MOH    -0.6497 ****
10705 HO1   -15.438577  -12.826671   -9.802480 H    1733 MOH     0.4215 ****
10706 HC1     2.688489   -6.299598  -13.265889 H    1734 MOH     0.0372 ****
10707 C1      3.122079   -6.106496  -12.285132 C    1734 MOH     0.1166 ****
10708 HC2     3.407868   -5.055665  -12.234220 H    1734 MOH     0.0372 ****
10709 HC3     4.010044   -6.725809  -12.158560 H    1734 MOH     0.0372 ****
10710 O1      2.167719   -6.421256  -11.277505 O    1734 MOH    -0.6497 ****
10711 HO1     2.368637   -7.312870  -10.984762 H    1734 MOH     0.4215 ****
10712 HC1    -3.948729  -17.153287  -20.898399 H    1735 MOH     0.0372 ****
10713 C1     -4.135791  -18.139207  -20.473428 C    1735 MOH     0.1166 ****
10714 HC2    -4.527812  -18.044493  -19.460851 H    1735 MOH     0.0372 ****
10715 HC3    -3.178544  -18.655641  -20.404839 H    1735 MOH     0.0372 ****
10716 O1     -4.976990  -18.943047  -21.322663 O    1735 MOH    -0.6497 ****
10717 HO1    -5.692904  -19.289242  -20.785262 H    1735 MOH     0.4215 ****
10718 HC1    -1.318321  -16.681352  -14.261495 H    1736 MOH     0.0372 ****
10719 C1     -2.167026  -16.246567  -13.733286 C    1736 MOH     0.1166 ****
10720 HC2    -2.303281  -15.219415  -14.071283 H    1736 MOH     0.0372 ****
10721 HC3    -2.002482  -16.258815  -12.655656 H    1736 MOH     0.0372 ****
10722 O1     -3.332697  -16.944672  -14.067041 O    1736 MOH    -0.6497 ****
10723 HO1    -3.305561  -17.745247  -13.537418 H    1736 MOH     0.4215 ****
10724 HC1     6.758231   -7.910954  -17.881175 H    1737 MOH     0.0372 ****
10725 C1      6.563664   -7.169575  -17.106186 C    1737 MOH     0.1166 ****
10726 HC2     5.499608   -7.127525  -16.873548 H    1737 MOH     0.0372 ****
10727 HC3     6.865041   -6.181206  -17.453375 H    1737 MOH     0.0372 ****
10728 O1      7.233391   -7.499848  -15.894912 O    1737 MOH    -0.6497 ****
10729 HO1     7.015730   -8.394320  -15.622676 H    1737 MOH     0.4215 ****
10730 HC1    -2.423947   -9.605593  -23.875319 H    1738 MOH     0.0372 ****
10731 C1     -3.216072  -10.137948  -23.349232 C    1738 MOH     0.1166 ****
10732 HC2    -3.188936   -9.880344  -22.290693 H    1738 MOH     0.0372 ****
10733 HC3    -3.050372  -11.205518  -23.491360 H    1738 MOH     0.0372 ****
10734 O1     -4.444673   -9.722352  -23.905018 O    1738 MOH    -0.6497 ****
10735 HO1    -5.139225  -10.081202  -23.347110 H    1738 MOH     0.4215 ****
10736 HC1    -1.727663   -1.714561  -24.994669 H    1739 MOH     0.0372 ****
10737 C1     -1.190150   -1.372041  -25.879260 C    1739 MOH     0.1166 ****
10738 HC2    -1.518085   -1.946038  -26.746173 H    1739 MOH     0.0372 ****
10739 HC3    -0.130712   -1.556569  -25.701069 H    1739 MOH     0.0372 ****
10740 O1     -1.450535    0.008655  -26.147960 O    1739 MOH    -0.6497 ****
10741 HO1    -1.191304    0.213595  -27.048814 H    1739 MOH     0.4215 ****
10742 HC1   -11.066303   -8.519652   -7.029207 H    1740 MOH     0.0372 ****
10743 C1    -12.086481   -8.812366   -6.781013 C    1740 MOH     0.1166 ****
10744 HC2   -12.247562   -8.754803   -5.705503 H    1740 MOH     0.0372 ****
10745 HC3   -12.294905   -9.834620   -7.097796 H    1740 MOH     0.0372 ****
10746 O1    -12.972714   -7.919935   -7.382053 O    1740 MOH    -0.6497 ****
10747 HO1   -12.521226   -7.543530   -8.141486 H    1740 MOH     0.4215 ****
10748 HC1     1.641176   -3.546780  -16.352410 H    1741 MOH     0.0372 ****
10749 C1      1.689673   -4.634353  -16.403322 C    1741 MOH     0.1166 ****
10750 HC2     1.311509   -4.989121  -17.361451 H    1741 MOH     0.0372 ****
10751 HC3     1.082878   -5.080977  -15.615605 H    1741 MOH     0.0372 ****
10752 O1      3.026239   -5.068729  -16.329783 O    1741 MOH    -0.6497 ****
10753 HO1     2.993908   -6.028113  -16.308569 H    1741 MOH     0.4215 ****
10754 HC1    -7.269071   -4.571483  -21.925826 H    1742 MOH     0.0372 ****
10755 C1     -7.223460   -5.026271  -22.915775 C    1742 MOH     0.1166 ****
10756 HC2    -6.306050   -5.605168  -23.024670 H    1742 MOH     0.0372 ****
10757 HC3    -7.233852   -4.248558  -23.678743 H    1742 MOH     0.0372 ****
10758 O1     -8.326776   -5.862772  -23.132857 O    1742 MOH    -0.6497 ****
10759 HO1    -8.067546   -6.750304  -22.875470 H    1742 MOH     0.4215 ****
10760 HC1     0.838082   -9.128350  -23.430549 H    1743 MOH     0.0372 ****
10761 C1      1.036690   -8.167742  -22.956080 C    1743 MOH     0.1166 ****
10762 HC2     2.101324   -7.950554  -23.039519 H    1743 MOH     0.0372 ****
10763 HC3     0.807482   -8.202851  -21.891177 H    1743 MOH     0.0372 ****
10764 O1      0.243411   -7.172024  -23.607326 O    1743 MOH    -0.6497 ****
10765 HO1     0.290754   -6.395944  -23.043761 H    1743 MOH     0.4215 ****
10766 HC1   -16.467415   -5.732949  -10.824956 H    1744 MOH     0.0372 ****
10767 C1    -15.427030   -5.705597  -11.150933 C    1744 MOH     0.1166 ****
10768 HC2   -14.842752   -6.345322  -10.488374 H    1744 MOH     0.0372 ****
10769 HC3   -15.085816   -4.671912  -11.097193 H    1744 MOH     0.0372 ****
10770 O1    -15.360057   -6.187738  -12.473929 O    1744 MOH    -0.6497 ****
10771 HO1   -15.954728   -6.940548  -12.517770 H    1744 MOH     0.4215 ****
10772 HC1   -13.587015  -10.415149  -14.984866 H    1745 MOH     0.0372 ****
10773 C1    -12.672492  -10.108963  -15.492568 C    1745 MOH     0.1166 ****
10774 HC2   -12.077244   -9.454541  -14.855465 H    1745 MOH     0.0372 ****
10775 HC3   -12.947888   -9.562726  -16.394836 H    1745 MOH     0.0372 ****
10776 O1    -11.970434  -11.248384  -15.890669 O    1745 MOH    -0.6497 ****
10777 HO1   -11.035704  -11.049567  -15.800867 H    1745 MOH     0.4215 ****
10778 HC1    -0.320660  -14.595611  -18.418576 H    1746 MOH     0.0372 ****
10779 C1     -0.273317  -13.872195  -17.603989 C    1746 MOH     0.1166 ****
10780 HC2    -1.066597  -13.144697  -17.775109 H    1746 MOH     0.0372 ****
10781 HC3     0.687393  -13.358619  -17.650658 H    1746 MOH     0.0372 ****
10782 O1     -0.458647  -14.513962  -16.309984 O    1746 MOH    -0.6497 ****
10783 HO1    -0.650327  -13.838311  -15.654496 H    1746 MOH     0.4215 ****
10784 HC1   -16.641198  -10.752770  -19.840568 H    1747 MOH     0.0372 ****
10785 C1    -16.598474  -10.511087  -18.778493 C    1747 MOH     0.1166 ****
10786 HC2   -15.561553  -10.573141  -18.447567 H    1747 MOH     0.0372 ****
10787 HC3   -17.196031  -11.212866  -18.196545 H    1747 MOH     0.0372 ****
10788 O1    -17.032064   -9.217348  -18.509086 O    1747 MOH    -0.6497 ****
10789 HO1   -17.801672   -9.025880  -19.050022 H    1747 MOH     0.4215 ****
10790 HC1   -19.244470   -6.815215  -12.125326 H    1748 MOH     0.0372 ****
10791 C1    -19.679215   -7.700706  -11.662171 C    1748 MOH     0.1166 ****
10792 HC2   -20.091443   -8.375540  -12.412411 H    1748 MOH     0.0372 ****
10793 HC3   -20.501362   -7.414524  -11.005269 H    1748 MOH     0.0372 ****
10794 O1    -18.773930   -8.403301  -10.866676 O    1748 MOH    -0.6497 ****
10795 HO1   -19.300473   -9.121002  -10.506051 H    1748 MOH     0.4215 ****
10796 HC1     6.437225   -5.881143  -14.099568 H    1749 MOH     0.0372 ****
10797 C1      6.519786   -4.941356  -13.553681 C    1749 MOH     0.1166 ****
10798 HC2     5.693020   -4.285709  -13.826624 H    1749 MOH     0.0372 ****
10799 HC3     7.477033   -4.479219  -13.798340 H    1749 MOH     0.0372 ****
10800 O1      6.478794   -5.299389  -12.212300 O    1749 MOH    -0.6497 ****
10801 HO1     6.702806   -4.556378  -11.648028 H    1749 MOH     0.4215 ****
10802 HC1   -13.331826   -8.643351  -19.453780 H    1750 MOH     0.0372 ****
10803 C1    -13.872226   -7.773782  -19.827133 C    1750 MOH     0.1166 ****
10804 HC2   -14.315631   -8.103239  -20.766878 H    1750 MOH     0.0372 ****
10805 HC3   -13.149383   -6.970758  -19.973504 H    1750 MOH     0.0372 ****
10806 O1    -14.863536   -7.435345  -18.833648 O    1750 MOH    -0.6497 ****
10807 HO1   -15.499199   -8.149371  -18.750916 H    1750 MOH     0.4215 ****
10808 HC1     1.224906  -17.258615  -17.814000 H    1751 MOH     0.0372 ****
10809 C1      0.544788  -17.827305  -17.179725 C    1751 MOH     0.1166 ****
10810 HC2     0.899281  -17.790154  -16.149470 H    1751 MOH     0.0372 ****
10811 HC3     0.489940  -18.863847  -17.511358 H    1751 MOH     0.0372 ****
10812 O1     -0.687855  -17.204318  -17.261749 O    1751 MOH    -0.6497 ****
10813 HO1    -0.585664  -16.311479  -16.925873 H    1751 MOH     0.4215 ****
10814 HC1    -4.907131  -10.795228  -12.830311 H    1752 MOH     0.0372 ****
10815 C1     -5.047427  -10.949546  -13.899457 C    1752 MOH     0.1166 ****
10816 HC2    -5.243726   -9.995061  -14.388774 H    1752 MOH     0.0372 ****
10817 HC3    -5.881698  -11.628463  -14.075526 H    1752 MOH     0.0372 ****
10818 O1     -3.871942  -11.503947  -14.451000 O    1752 MOH    -0.6497 ****
10819 HO1    -3.225309  -11.604784  -13.748843 H    1752 MOH     0.4215 ****
10820 HC1    -2.143932   -2.758860  -11.539841 H    1753 MOH     0.0372 ****
10821 C1     -1.661268   -3.724776  -11.686919 C    1753 MOH     0.1166 ****
10822 HC2    -2.434340   -4.478810  -11.834705 H    1753 MOH     0.0372 ****
10823 HC3    -1.096619   -3.967275  -10.787480 H    1753 MOH     0.0372 ****
10824 O1     -0.753096   -3.697015  -12.809805 O    1753 MOH    -0.6497 ****
10825 HO1    -0.041800   -3.092807  -12.580702 H    1753 MOH     0.4215 ****
10826 HC1    -7.450936  -11.001393  -20.199071 H    1754 MOH     0.0372 ****
10827 C1     -7.612017  -12.014257  -19.830668 C    1754 MOH     0.1166 ****
10828 HC2    -8.363149  -11.969350  -19.042951 H    1754 MOH     0.0372 ****
10829 HC3    -6.687102  -12.414749  -19.415597 H    1754 MOH     0.0372 ****
10830 O1     -8.063505  -12.860964  -20.887086 O    1754 MOH    -0.6497 ****
10831 HO1    -7.658782  -13.719102  -20.737179 H    1754 MOH     0.4215 ****
10832 HC1     1.554573  -16.884251  -12.584945 H    1755 MOH     0.0372 ****
10833 C1      1.388297  -16.797294  -11.510850 C    1755 MOH     0.1166 ****
10834 HC2     1.460465  -15.741156  -11.251342 H    1755 MOH     0.0372 ****
10835 HC3     2.175225  -17.351287  -10.998197 H    1755 MOH     0.0372 ****
10836 O1      0.062700  -17.316178  -11.276797 O    1755 MOH    -0.6497 ****
10837 HO1    -0.248491  -16.967534  -10.438169 H    1755 MOH     0.4215 ****
10838 HC1     0.420657    0.512841   -3.403871 H    1756 MOH     0.0372 ****
10839 C1     -0.290638   -0.313045   -3.414477 C    1756 MOH     0.1166 ****
10840 HC2     0.071361   -1.044218   -4.137847 H    1756 MOH     0.0372 ****
10841 HC3    -1.279639    0.059278   -3.684592 H    1756 MOH     0.0372 ****
10842 O1     -0.354147   -0.886634   -2.129664 O    1756 MOH    -0.6497 ****
10843 HO1    -0.630120   -0.202818   -1.515188 H    1756 MOH     0.4215 ****
10844 HC1    -3.649662    2.042548  -20.411910 H    1757 MOH     0.0372 ****
10845 C1     -4.230476    2.423852  -19.571867 C    1757 MOH     0.1166 ****
10846 HC2    -3.933141    3.431000  -19.279832 H    1757 MOH     0.0372 ****
10847 HC3    -4.022630    1.768613  -18.725460 H    1757 MOH     0.0372 ****
10848 O1     -5.609766    2.380169  -19.856831 O    1757 MOH    -0.6497 ****
10849 HO1    -6.015066    1.705335  -19.307409 H    1757 MOH     0.4215 ****
10850 HC1   -15.071960   -8.314303   -9.385994 H    1758 MOH     0.0372 ****
10851 C1    -15.463403   -9.083443  -10.050674 C    1758 MOH     0.1166 ****
10852 HC2   -14.963995   -9.049558  -11.018704 H    1758 MOH     0.0372 ****
10853 HC3   -16.534965   -8.920960  -10.175125 H    1758 MOH     0.0372 ****
10854 O1    -15.322530  -10.350237   -9.465897 O    1758 MOH    -0.6497 ****
10855 HO1   -15.768821  -10.350646   -8.616662 H    1758 MOH     0.4215 ****
10856 HC1     1.148119  -10.746238  -13.766520 H    1759 MOH     0.0372 ****
10857 C1      1.131376  -11.753387  -14.184421 C    1759 MOH     0.1166 ****
10858 HC2     1.633093  -12.411891  -13.476607 H    1759 MOH     0.0372 ****
10859 HC3     1.682745  -11.781964  -15.124873 H    1759 MOH     0.0372 ****
10860 O1     -0.211541  -12.188988  -14.333620 O    1759 MOH    -0.6497 ****
10861 HO1    -0.703443  -11.928117  -13.550853 H    1759 MOH     0.4215 ****
10862 HC1    -4.717183   -6.955245  -14.634848 H    1760 MOH     0.0372 ****
10863 C1     -5.780662   -6.754386  -14.766369 C    1760 MOH     0.1166 ****
10864 HC2    -6.362631   -7.675395  -14.739499 H    1760 MOH     0.0372 ****
10865 HC3    -5.945784   -6.283676  -15.735813 H    1760 MOH     0.0372 ****
10866 O1     -6.230995   -5.863997  -13.787027 O    1760 MOH    -0.6497 ****
10867 HO1    -6.120721   -4.969525  -14.117245 H    1760 MOH     0.4215 ****
10868 HC1    -1.004243   -4.027696  -17.431455 H    1761 MOH     0.0372 ****
10869 C1     -1.408388   -3.681910  -18.382514 C    1761 MOH     0.1166 ****
10870 HC2    -2.341386   -4.205284  -18.594646 H    1761 MOH     0.0372 ****
10871 HC3    -0.687278   -3.826838  -19.186494 H    1761 MOH     0.0372 ****
10872 O1     -1.654917   -2.315911  -18.228364 O    1761 MOH    -0.6497 ****
10873 HO1    -0.830460   -1.860306  -18.040274 H    1761 MOH     0.4215 ****
10874 HC1    -5.236798  -15.283510  -12.227856 H    1762 MOH     0.0372 ****
10875 C1     -5.422705  -14.697673  -13.128003 C    1762 MOH     0.1166 ****
10876 HC2    -5.404807  -15.321477  -14.021786 H    1762 MOH     0.0372 ****
10877 HC3    -4.675036  -13.912204  -13.236897 H    1762 MOH     0.0372 ****
10878 O1     -6.665162  -14.109388  -12.998603 O    1762 MOH    -0.6497 ****
10879 HO1    -6.963652  -13.998752  -13.904406 H    1762 MOH     0.4215 ****
10880 HC1    -4.052075  -11.708479  -10.808693 H    1763 MOH     0.0372 ****
10881 C1     -3.298056  -12.462106  -11.036381 C    1763 MOH     0.1166 ****
10882 HC2    -3.784184  -13.351679  -11.435896 H    1763 MOH     0.0372 ****
10883 HC3    -2.809040  -12.751554  -10.106536 H    1763 MOH     0.0372 ****
10884 O1     -2.363903  -11.919952  -11.981076 O    1763 MOH    -0.6497 ****
10885 HO1    -2.147396  -11.022214  -11.721568 H    1763 MOH     0.4215 ****
10886 HC1    -5.806642   -3.355719  -19.895015 H    1764 MOH     0.0372 ****
10887 C1     -6.043933   -3.642310  -18.869710 C    1764 MOH     0.1166 ****
10888 HC2    -5.281831   -4.304897  -18.460295 H    1764 MOH     0.0372 ****
10889 HC3    -6.997139   -4.170991  -18.888802 H    1764 MOH     0.0372 ****
10890 O1     -6.145547   -2.515953  -18.031789 O    1764 MOH    -0.6497 ****
10891 HO1    -5.371898   -1.959510  -18.151290 H    1764 MOH     0.4215 ****
10892 HC1    -8.115466  -18.338023  -13.543075 H    1765 MOH     0.0372 ****
10893 C1     -8.522498  -17.337407  -13.688032 C    1765 MOH     0.1166 ****
10894 HC2    -9.568079  -17.383131  -13.993502 H    1765 MOH     0.0372 ****
10895 HC3    -7.965932  -16.879761  -14.504740 H    1765 MOH     0.0372 ****
10896 O1     -8.367768  -16.513562  -12.531205 O    1765 MOH    -0.6497 ****
10897 HO1    -8.084867  -15.633378  -12.791420 H    1765 MOH     0.4215 ****
10898 HC1    -8.709560  -13.932616  -11.320638 H    1766 MOH     0.0372 ****
10899 C1     -8.621225  -12.946696  -10.864554 C    1766 MOH     0.1166 ****
10900 HC2    -9.222247  -12.914853   -9.956629 H    1766 MOH     0.0372 ****
10901 HC3    -8.973409  -12.211441  -11.587925 H    1766 MOH     0.0372 ****
10902 O1     -7.281195  -12.742981  -10.556963 O    1766 MOH    -0.6497 ****
10903 HO1    -6.796221  -13.209608  -11.240735 H    1766 MOH     0.4215 ****
10904 HC1     1.235299   -2.140364  -19.098106 H    1767 MOH     0.0372 ****
10905 C1      1.655610   -1.256915  -18.617273 C    1767 MOH     0.1166 ****
10906 HC2     1.909067   -0.515128  -19.374584 H    1767 MOH     0.0372 ****
10907 HC3     2.542420   -1.539831  -18.050880 H    1767 MOH     0.0372 ****
10908 O1      0.650443   -0.760485  -17.794201 O    1767 MOH    -0.6497 ****
10909 HO1     1.006668   -0.564118  -16.925166 H    1767 MOH     0.4215 ****
10910 HC1    -6.745991  -18.769950  -10.506758 H    1768 MOH     0.0372 ****
10911 C1     -5.669810  -18.761785  -10.676464 C    1768 MOH     0.1166 ****
10912 HC2    -5.249499  -17.901606  -10.156740 H    1768 MOH     0.0372 ****
10913 HC3    -5.466006  -18.701364  -11.745609 H    1768 MOH     0.0372 ****
10914 O1     -5.076294  -19.906513  -10.175832 O    1768 MOH    -0.6497 ****
10915 HO1    -5.538175  -20.167792   -9.376802 H    1768 MOH     0.4215 ****
10916 HC1   -10.099819   -4.101997  -17.908045 H    1769 MOH     0.0372 ****
10917 C1    -10.682365   -4.974832  -17.612474 C    1769 MOH     0.1166 ****
10918 HC2   -10.346348   -5.889717  -18.099671 H    1769 MOH     0.0372 ****
10919 HC3   -11.702543   -4.794795  -17.949764 H    1769 MOH     0.0372 ****
10920 O1    -10.689294   -5.121802  -16.209574 O    1769 MOH    -0.6497 ****
10921 HO1   -10.875778   -4.259989  -15.828444 H    1769 MOH     0.4215 ****
10922 HC1   -10.930626   -7.116503  -13.637120 H    1770 MOH     0.0372 ****
10923 C1     -9.898901   -7.400235  -13.842888 C    1770 MOH     0.1166 ****
10924 HC2    -9.628124   -8.226121  -13.185986 H    1770 MOH     0.0372 ****
10925 HC3    -9.250537   -6.549446  -13.632170 H    1770 MOH     0.0372 ****
10926 O1     -9.760914   -7.719485  -15.204776 O    1770 MOH    -0.6497 ****
10927 HO1   -10.057672   -6.926667  -15.657324 H    1770 MOH     0.4215 ****
10928 HC1    -5.436561   -7.844001  -19.323673 H    1771 MOH     0.0372 ****
10929 C1     -5.422127   -7.136507  -20.153109 C    1771 MOH     0.1166 ****
10930 HC2    -6.412860   -6.705397  -20.294530 H    1771 MOH     0.0372 ****
10931 HC3    -5.083223   -7.629671  -21.063862 H    1771 MOH     0.0372 ****
10932 O1     -4.545132   -6.084859  -19.846225 O    1771 MOH    -0.6497 ****
10933 HO1    -4.348833   -6.077919  -18.906480 H    1771 MOH     0.4215 ****
10934 HC1     0.694899  -11.678677   -5.994003 H    1772 MOH     0.0372 ****
10935 C1      0.769954  -10.636828   -6.303715 C    1772 MOH     0.1166 ****
10936 HC2     1.808608  -10.412291   -6.546960 H    1772 MOH     0.0372 ****
10937 HC3     0.407956  -10.035478   -5.468622 H    1772 MOH     0.0372 ****
10938 O1     -0.118010  -10.479244   -7.379932 O    1772 MOH    -0.6497 ****
10939 HO1     0.249184  -10.999760   -8.097645 H    1772 MOH     0.4215 ****
10940 HC1   -11.640190   -3.361843  -12.439988 H    1773 MOH     0.0372 ****
10941 C1    -11.879790   -3.994628  -11.585803 C    1773 MOH     0.1166 ****
10942 HC2   -12.925371   -3.870112  -11.305082 H    1773 MOH     0.0372 ****
10943 HC3   -11.247591   -3.687217  -10.752124 H    1773 MOH     0.0372 ****
10944 O1    -11.577836   -5.344705  -11.901880 O    1773 MOH    -0.6497 ****
10945 HO1   -12.040293   -5.617823  -12.697375 H    1773 MOH     0.4215 ****
10946 HC1   -14.233647  -11.300231  -21.539745 H    1774 MOH     0.0372 ****
10947 C1    -13.445564  -11.265938  -22.292107 C    1774 MOH     0.1166 ****
10948 HC2   -13.865875  -10.874428  -23.219124 H    1774 MOH     0.0372 ****
10949 HC3   -13.047769  -12.263697  -22.478783 H    1774 MOH     0.0372 ****
10950 O1    -12.439242  -10.365751  -21.942089 O    1774 MOH    -0.6497 ****
10951 HO1   -11.611899  -10.830746  -22.085632 H    1774 MOH     0.4215 ****
10952 HC1   -11.029930  -11.920769  -24.257864 H    1775 MOH     0.0372 ****
10953 C1    -10.599804  -12.490683  -23.433377 C    1775 MOH     0.1166 ****
10954 HC2    -9.824423  -13.134491  -23.848449 H    1775 MOH     0.0372 ****
10955 HC3   -11.345164  -13.139390  -22.973051 H    1775 MOH     0.0372 ****
10956 O1    -10.030537  -11.596211  -22.493632 O    1775 MOH    -0.6497 ****
10957 HO1    -9.615999  -12.135507  -21.816931 H    1775 MOH     0.4215 ****
10958 HC1    -0.682659   -3.205484  -21.972495 H    1776 MOH     0.0372 ****
10959 C1      0.060968   -3.726409  -22.574950 C    1776 MOH     0.1166 ****
10960 HC2     0.976646   -3.136898  -22.623033 H    1776 MOH     0.0372 ****
10961 HC3    -0.275049   -3.847659  -23.605204 H    1776 MOH     0.0372 ****
10962 O1      0.399296   -4.955236  -21.990879 O    1776 MOH    -0.6497 ****
10963 HO1    -0.304494   -5.226721  -21.397617 H    1776 MOH     0.4215 ****
10964 HC1     0.033256   -8.882585  -17.312661 H    1777 MOH     0.0372 ****
10965 C1     -0.006004   -9.952195  -17.517722 C    1777 MOH     0.1166 ****
10966 HC2    -0.784272  -10.380448  -16.886276 H    1777 MOH     0.0372 ****
10967 HC3     0.962789  -10.388613  -17.273770 H    1777 MOH     0.0372 ****
10968 O1     -0.294679  -10.244093  -18.885974 O    1777 MOH    -0.6497 ****
10969 HO1     0.134869  -11.058548  -19.158210 H    1777 MOH     0.4215 ****
10970 HC1     4.194796  -10.202452  -19.559139 H    1778 MOH     0.0372 ****
10971 C1      3.672294   -9.273278  -19.331451 C    1778 MOH     0.1166 ****
10972 HC2     2.639992   -9.486384  -19.052851 H    1778 MOH     0.0372 ****
10973 HC3     3.712709   -8.627021  -20.207556 H    1778 MOH     0.0372 ****
10974 O1      4.359918   -8.709896  -18.265134 O    1778 MOH    -0.6497 ****
10975 HO1     4.822376   -9.425147  -17.822485 H    1778 MOH     0.4215 ****
10976 HC1    -2.404895  -14.988346   -9.919152 H    1779 MOH     0.0372 ****
10977 C1     -2.153747  -15.508863   -8.994964 C    1779 MOH     0.1166 ****
10978 HC2    -2.820587  -16.362510   -8.874049 H    1779 MOH     0.0372 ****
10979 HC3    -2.276723  -14.838927   -8.144314 H    1779 MOH     0.0372 ****
10980 O1     -0.813717  -15.939565   -9.091837 O    1779 MOH    -0.6497 ****
10981 HO1    -0.623769  -16.495191   -8.333112 H    1779 MOH     0.4215 ****
10982 HC1    -0.932074   -8.057923  -19.940270 H    1780 MOH     0.0372 ****
10983 C1     -1.869114   -7.801952  -20.433123 C    1780 MOH     0.1166 ****
10984 HC2    -2.707426   -8.133857  -19.820062 H    1780 MOH     0.0372 ****
10985 HC3    -1.887589   -8.300831  -21.401859 H    1780 MOH     0.0372 ****
10986 O1     -1.899713   -6.418398  -20.650205 O    1780 MOH    -0.6497 ****
10987 HO1    -2.815968   -6.177123  -20.802233 H    1780 MOH     0.4215 ****
10988 HC1   -10.878665   -8.760110  -10.698384 H    1781 MOH     0.0372 ****
10989 C1    -11.888450   -8.360843  -10.606460 C    1781 MOH     0.1166 ****
10990 HC2   -12.501019   -9.102222  -10.093101 H    1781 MOH     0.0372 ****
10991 HC3   -12.289709   -8.168967  -11.602067 H    1781 MOH     0.0372 ****
10992 O1    -11.820323   -7.172024   -9.844199 O    1781 MOH    -0.6497 ****
10993 HO1   -11.486037   -6.478819  -10.418370 H    1781 MOH     0.4215 ****
10994 HC1    -4.261653  -12.767884  -21.647933 H    1782 MOH     0.0372 ****
10995 C1     -3.956235  -13.748088  -22.014921 C    1782 MOH     0.1166 ****
10996 HC2    -3.007071  -13.668480  -22.544544 H    1782 MOH     0.0372 ****
10997 HC3    -4.722956  -14.140415  -22.681723 H    1782 MOH     0.0372 ****
10998 O1     -3.802660  -14.668688  -20.940826 O    1782 MOH    -0.6497 ****
10999 HO1    -2.953377  -15.102656  -21.049013 H    1782 MOH     0.4215 ****
11000 HC1     1.579400  -15.416190  -14.974966 H    1783 MOH     0.0372 ****
11001 C1      2.450621  -14.912820  -15.394280 C    1783 MOH     0.1166 ****
11002 HC2     2.152708  -13.963643  -15.837636 H    1783 MOH     0.0372 ****
11003 HC3     2.889407  -15.524376  -16.183411 H    1783 MOH     0.0372 ****
11004 O1      3.419415  -14.637661  -14.408573 O    1783 MOH    -0.6497 ****
11005 HO1     3.849541  -15.475795  -14.225433 H    1783 MOH     0.4215 ****
11006 HC1   -15.134891   -1.523909  -12.274525 H    1784 MOH     0.0372 ****
11007 C1    -14.272329   -1.060956  -12.753944 C    1784 MOH     0.1166 ****
11008 HC2   -13.485401   -0.946238  -12.007946 H    1784 MOH     0.0372 ****
11009 HC3   -14.589295   -0.068912  -13.076384 H    1784 MOH     0.0372 ****
11010 O1    -13.889546   -1.848467  -13.912892 O    1784 MOH    -0.6497 ****
11011 HO1   -14.583521   -1.802335  -14.574037 H    1784 MOH     0.4215 ****
11012 HC1    -6.975777   -9.092424  -26.722838 H    1785 MOH     0.0372 ****
11013 C1     -6.052016   -8.904222  -27.270846 C    1785 MOH     0.1166 ****
11014 HC2    -5.461387   -9.819106  -27.233369 H    1785 MOH     0.0372 ****
11015 HC3    -5.529514   -8.080785  -26.783649 H    1785 MOH     0.0372 ****
11016 O1     -6.325103   -8.551904  -28.624955 O    1785 MOH    -0.6497 ****
11017 HO1    -5.543371   -8.129775  -28.988408 H    1785 MOH     0.4215 ****
11018 HC1    -2.867930    0.163381  -16.701721 H    1786 MOH     0.0372 ****
11019 C1     -3.882911   -0.219964  -16.805665 C    1786 MOH     0.1166 ****
11020 HC2    -4.604022    0.597349  -16.784452 H    1786 MOH     0.0372 ****
11021 HC3    -4.117893   -0.914803  -15.999564 H    1786 MOH     0.0372 ****
11022 O1     -4.010506   -0.931949  -17.987948 O    1786 MOH    -0.6497 ****
11023 HO1    -3.289973   -1.565142  -18.019768 H    1786 MOH     0.4215 ****
11024 HC1    -9.389101  -13.830554  -15.812180 H    1787 MOH     0.0372 ****
11025 C1     -8.532313  -14.088567  -16.435849 C    1787 MOH     0.1166 ****
11026 HC2    -8.346406  -13.295341  -17.159219 H    1787 MOH     0.0372 ****
11027 HC3    -8.778264  -14.992429  -16.993049 H    1787 MOH     0.0372 ****
11028 O1     -7.368952  -14.279219  -15.634697 O    1787 MOH    -0.6497 ****
11029 HO1    -6.672668  -14.627046  -16.196139 H    1787 MOH     0.4215 ****
11030 HC1    -3.334429  -14.170625  -16.628889 H    1788 MOH     0.0372 ****
11031 C1     -3.832682  -14.946297  -17.208716 C    1788 MOH     0.1166 ****
11032 HC2    -3.105798  -15.691758  -17.531157 H    1788 MOH     0.0372 ****
11033 HC3    -4.295139  -14.472320  -18.074922 H    1788 MOH     0.0372 ****
11034 O1     -4.807826  -15.577040  -16.411807 O    1788 MOH    -0.6497 ****
11035 HO1    -4.336131  -15.946097  -15.662274 H    1788 MOH     0.4215 ****
11036 HC1     0.006120   -8.118752   -9.441855 H    1789 MOH     0.0372 ****
11037 C1     -0.616264   -7.224280   -9.451048 C    1789 MOH     0.1166 ****
11038 HC2    -0.172281   -6.437177   -8.841522 H    1789 MOH     0.0372 ****
11039 HC3    -1.587944   -7.502297   -9.041633 H    1789 MOH     0.0372 ****
11040 O1     -0.795820   -6.771533  -10.772630 O    1789 MOH    -0.6497 ****
11041 HO1     0.061546   -6.495965  -11.105678 H    1789 MOH     0.4215 ****
11042 HC1    -4.009928   -2.471862  -20.922441 H    1790 MOH     0.0372 ****
11043 C1     -3.416990   -2.810300  -21.771676 C    1790 MOH     0.1166 ****
11044 HC2    -3.049795   -3.806017  -21.523482 H    1790 MOH     0.0372 ****
11045 HC3    -2.570017   -2.140364  -21.923704 H    1790 MOH     0.0372 ****
11046 O1     -4.221239   -2.861331  -22.941938 O    1790 MOH    -0.6497 ****
11047 HO1    -3.814207   -3.511670  -23.519644 H    1790 MOH     0.4215 ****
11048 HC1    -8.253453   -2.150979  -15.259930 H    1791 MOH     0.0372 ****
11049 C1     -8.072165   -3.189154  -14.980623 C    1791 MOH     0.1166 ****
11050 HC2    -8.731499   -3.826430  -15.569643 H    1791 MOH     0.0372 ****
11051 HC3    -8.296754   -3.343880  -13.924912 H    1791 MOH     0.0372 ****
11052 O1     -6.741950   -3.584747  -15.221746 O    1791 MOH    -0.6497 ****
11053 HO1    -6.562394   -3.476561  -16.158663 H    1791 MOH     0.4215 ****
11054 HC1    -4.364999   -7.939123  -11.601360 H    1792 MOH     0.0372 ****
11055 C1     -3.911202   -7.059756  -11.144569 C    1792 MOH     0.1166 ****
11056 HC2    -3.074044   -6.742955  -11.766823 H    1792 MOH     0.0372 ****
11057 HC3    -3.607515   -7.308788  -10.127749 H    1792 MOH     0.0372 ****
11058 O1     -4.861520   -6.061997  -11.179924 O    1792 MOH    -0.6497 ****
11059 HO1    -5.189455   -6.006476  -12.080778 H    1792 MOH     0.4215 ****
11060 HC1   -12.532196    3.533471  -13.930569 H    1793 MOH     0.0372 ****
11061 C1    -13.439790    3.469784  -13.330943 C    1793 MOH     0.1166 ****
11062 HC2   -14.050627    2.623077  -13.643484 H    1793 MOH     0.0372 ****
11063 HC3   -13.988850    4.401815  -13.463172 H    1793 MOH     0.0372 ****
11064 O1    -13.067977    3.286480  -12.006532 O    1793 MOH    -0.6497 ****
11065 HO1   -12.540856    2.483864  -12.007946 H    1793 MOH     0.4215 ****
11066 HC1     2.997949   -4.620064   -6.224520 H    1794 MOH     0.0372 ****
11067 C1      2.745070   -3.755394   -5.610751 C    1794 MOH     0.1166 ****
11068 HC2     3.552783   -3.572091   -4.902937 H    1794 MOH     0.0372 ****
11069 HC3     1.827083   -3.988096   -5.071935 H    1794 MOH     0.0372 ****
11070 O1      2.552812   -2.647000   -6.467057 O    1794 MOH    -0.6497 ****
11071 HO1     1.867497   -2.918077   -7.082240 H    1794 MOH     0.4215 ****
11072 HC1    -0.742703  -11.879535   -9.758639 H    1795 MOH     0.0372 ****
11073 C1      0.080021  -12.570292   -9.943901 C    1795 MOH     0.1166 ****
11074 HC2     0.355417  -12.449042  -10.991126 H    1795 MOH     0.0372 ****
11075 HC3    -0.228284  -13.610100   -9.837128 H    1795 MOH     0.0372 ****
11076 O1      1.170058  -12.259615   -9.059311 O    1795 MOH    -0.6497 ****
11077 HO1     1.780895  -13.000177   -9.046583 H    1795 MOH     0.4215 ****
11078 HC1    -4.995465  -10.538032  -18.953856 H    1796 MOH     0.0372 ****
11079 C1     -4.068241  -10.714803  -18.410091 C    1796 MOH     0.1166 ****
11080 HC2    -4.134059  -11.639485  -17.836627 H    1796 MOH     0.0372 ****
11081 HC3    -3.844806   -9.878302  -17.747532 H    1796 MOH     0.0372 ****
11082 O1     -3.064806  -10.816865  -19.340643 O    1796 MOH    -0.6497 ****
11083 HO1    -2.254784  -10.475978  -18.953856 H    1796 MOH     0.4215 ****
11084 HC1    -7.092401  -10.393920  -24.226751 H    1797 MOH     0.0372 ****
11085 C1     -6.812387  -11.302272  -23.692885 C    1797 MOH     0.1166 ****
11086 HC2    -6.004096  -11.797886  -24.230287 H    1797 MOH     0.0372 ****
11087 HC3    -7.643194  -12.008134  -23.669551 H    1797 MOH     0.0372 ****
11088 O1     -6.374755  -11.040994  -22.373424 O    1797 MOH    -0.6497 ****
11089 HO1    -6.722320  -11.745630  -21.821881 H    1797 MOH     0.4215 ****
11090 HC1     4.091451  -10.921785  -10.823542 H    1798 MOH     0.0372 ****
11091 C1      3.260066  -10.238377  -10.993248 C    1798 MOH     0.1166 ****
11092 HC2     2.338038  -10.698473  -10.636159 H    1798 MOH     0.0372 ****
11093 HC3     3.189629  -10.050175  -12.064514 H    1798 MOH     0.0372 ****
11094 O1      3.588001   -9.017715  -10.341295 O    1798 MOH    -0.6497 ****
11095 HO1     4.201147   -9.214899   -9.629239 H    1798 MOH     0.4215 ****
11096 HC1     3.851273   -8.095482  -14.801018 H    1799 MOH     0.0372 ****
11097 C1      2.841487   -8.416365  -15.056990 C    1799 MOH     0.1166 ****
11098 HC2     2.144048   -7.985663  -14.337863 H    1799 MOH     0.0372 ****
11099 HC3     2.760081   -9.502714  -15.022342 H    1799 MOH     0.0372 ****
11100 O1      2.486417   -7.957086  -16.329075 O    1799 MOH    -0.6497 ****
11101 HO1     3.085129   -8.364518  -16.958400 H    1799 MOH     0.4215 ****
11102 HC1    -1.744983   -7.430446   -3.753888 H    1800 MOH     0.0372 ****
11103 C1     -1.520394   -6.364509   -3.703684 C    1800 MOH     0.1166 ****
11104 HC2    -1.879506   -5.816640   -4.574839 H    1800 MOH     0.0372 ****
11105 HC3    -0.434398   -6.317969   -3.775809 H    1800 MOH     0.0372 ****
11106 O1     -1.881238   -5.766425   -2.437256 O    1800 MOH    -0.6497 ****
11107 HO1    -1.953407   -4.817656   -2.563121 H    1800 MOH     0.4215 ****
11108 HC1    -2.658351  -20.881410  -12.386248 H    1801 MOH     0.0372 ****
11109 C1     -2.076960  -20.124110  -11.859453 C    1801 MOH     0.1166 ****
11110 HC2    -1.023296  -20.368242  -11.996632 H    1801 MOH     0.0372 ****
11111 HC3    -2.306745  -20.113495  -10.794551 H    1801 MOH     0.0372 ****
11112 O1     -2.205132  -18.863847  -12.411704 O    1801 MOH    -0.6497 ****
11113 HO1    -1.406656  -18.387421  -12.170580 H    1801 MOH     0.4215 ****
11114 HC1    -0.345486   -0.987063  -13.526811 H    1802 MOH     0.0372 ****
11115 C1     -0.837966   -0.550645  -14.395846 C    1802 MOH     0.1166 ****
11116 HC2    -1.780202   -0.063197  -14.145530 H    1802 MOH     0.0372 ****
11117 HC3    -1.090268   -1.385105  -15.050626 H    1802 MOH     0.0372 ****
11118 O1     -0.000231    0.374445  -15.095881 O    1802 MOH    -0.6497 ****
11119 HO1    -0.541208    1.074183  -15.467819 H    1802 MOH     0.4215 ****
11120 HC1    -2.437804  -21.203926  -17.048910 H    1803 MOH     0.0372 ****
11121 C1     -2.470713  -20.118802  -17.147905 C    1803 MOH     0.1166 ****
11122 HC2    -2.025576  -19.649725  -16.270386 H    1803 MOH     0.0372 ****
11123 HC3    -3.508211  -19.793020  -17.222858 H    1803 MOH     0.0372 ****
11124 O1     -1.784820  -19.741581  -18.313217 O    1803 MOH    -0.6497 ****
11125 HO1    -1.683207  -18.788321  -18.272912 H    1803 MOH     0.4215 ****
11126 HC1     5.995552  -12.386988  -15.865920 H    1804 MOH     0.0372 ****
11127 C1      5.089689  -12.062431  -16.377159 C    1804 MOH     0.1166 ****
11128 HC2     4.204034  -12.455166  -15.877941 H    1804 MOH     0.0372 ****
11129 HC3     5.097195  -12.410666  -17.410242 H    1804 MOH     0.0372 ****
11130 O1      4.996736  -10.670304  -16.363016 O    1804 MOH    -0.6497 ****
11131 HO1     5.266936  -10.384938  -15.486911 H    1804 MOH     0.4215 ****
11132 HC1    -1.470165   -7.823180  -13.881072 H    1805 MOH     0.0372 ****
11133 C1     -0.806789   -8.644984  -13.611664 C    1805 MOH     0.1166 ****
11134 HC2     0.209347   -8.258781  -13.533882 H    1805 MOH     0.0372 ****
11135 HC3    -0.820646   -9.427596  -14.370390 H    1805 MOH     0.0372 ****
11136 O1     -1.184954   -9.072012  -12.324730 O    1805 MOH    -0.6497 ****
11137 HO1    -1.131260   -8.302872  -11.753387 H    1805 MOH     0.4215 ****
11138 HC1     2.309748   -1.623930   -9.777731 H    1806 MOH     0.0372 ****
11139 C1      1.970266   -2.369800  -10.496859 C    1806 MOH     0.1166 ****
11140 HC2     1.463929   -3.207117  -10.015319 H    1806 MOH     0.0372 ****
11141 HC3     2.857076   -2.766617  -10.991833 H    1806 MOH     0.0372 ****
11142 O1      1.129066   -1.749262  -11.451453 O    1806 MOH    -0.6497 ****
11143 HO1     1.658496   -1.064222  -11.867232 H    1806 MOH     0.4215 ****
11144 HC1    -6.983860   -8.860131  -18.758694 H    1807 MOH     0.0372 ****
11145 C1     -7.614326   -9.173666  -17.927137 C    1807 MOH     0.1166 ****
11146 HC2    -8.590625   -9.486384  -18.297661 H    1807 MOH     0.0372 ****
11147 HC3    -7.784644   -8.346555  -17.237001 H    1807 MOH     0.0372 ****
11148 O1     -7.012150  -10.227763  -17.231344 O    1807 MOH    -0.6497 ****
11149 HO1    -7.662824  -10.582122  -16.621818 H    1807 MOH     0.4215 ****
11150 HC1    -4.321698   -4.127717  -15.614898 H    1808 MOH     0.0372 ****
11151 C1     -3.665250   -3.852149  -14.789704 C    1808 MOH     0.1166 ****
11152 HC2    -4.212001   -3.888075  -13.846424 H    1808 MOH     0.0372 ****
11153 HC3    -3.318840   -2.829487  -14.940318 H    1808 MOH     0.0372 ****
11154 O1     -2.546345   -4.724168  -14.724650 O    1808 MOH    -0.6497 ****
11155 HO1    -1.941282   -4.397569  -14.054313 H    1808 MOH     0.4215 ****
11156 HC1   -14.983625  -14.195528  -15.561865 H    1809 MOH     0.0372 ****
11157 C1    -14.339879  -13.411283  -15.958552 C    1809 MOH     0.1166 ****
11158 HC2   -14.305816  -12.609892  -15.221039 H    1809 MOH     0.0372 ****
11159 HC3   -14.738828  -12.971191  -16.873548 H    1809 MOH     0.0372 ****
11160 O1    -13.028140  -13.875870  -16.189068 O    1809 MOH    -0.6497 ****
11161 HO1   -12.585889  -13.088767  -16.514337 H    1809 MOH     0.4215 ****
11162 HC1    -8.491321   -7.159777  -20.719502 H    1810 MOH     0.0372 ****
11163 C1     -8.624689   -8.182439  -21.072348 C    1810 MOH     0.1166 ****
11164 HC2    -9.623505   -8.260006  -21.500855 H    1810 MOH     0.0372 ****
11165 HC3    -8.551366   -8.899323  -20.254932 H    1810 MOH     0.0372 ****
11166 O1     -7.704393   -8.459640  -22.084218 O    1810 MOH    -0.6497 ****
11167 HO1    -7.588345   -9.407592  -22.176141 H    1810 MOH     0.4215 ****
11168 HC1    -6.304318  -16.434362  -21.761777 H    1811 MOH     0.0372 ****
11169 C1     -7.041017  -16.088575  -21.036992 C    1811 MOH     0.1166 ****
11170 HC2    -7.311795  -16.896499  -20.356049 H    1811 MOH     0.0372 ****
11171 HC3    -7.949767  -15.788921  -21.557423 H    1811 MOH     0.0372 ****
11172 O1     -6.601076  -15.007126  -20.242911 O    1811 MOH    -0.6497 ****
11173 HO1    -5.653645  -15.075711  -20.107147 H    1811 MOH     0.4215 ****
11174 HC1    -5.355732    0.120923  -21.409638 H    1812 MOH     0.0372 ****
11175 C1     -6.203282   -0.543705  -21.239932 C    1812 MOH     0.1166 ****
11176 HC2    -7.068730    0.100102  -21.083662 H    1812 MOH     0.0372 ****
11177 HC3    -5.970610   -1.145463  -20.361705 H    1812 MOH     0.0372 ****
11178 O1     -6.336650   -1.245484  -22.455449 O    1812 MOH    -0.6497 ****
11179 HO1    -5.490832   -1.651283  -22.660510 H    1812 MOH     0.4215 ****
11180 HC1    -7.467102  -18.685034  -15.999564 H    1813 MOH     0.0372 ****
11181 C1     -6.431913  -18.380889  -16.155834 C    1813 MOH     0.1166 ****
11182 HC2    -5.843016  -19.283526  -16.323419 H    1813 MOH     0.0372 ****
11183 HC3    -6.058945  -17.824039  -15.297407 H    1813 MOH     0.0372 ****
11184 O1     -6.434222  -17.649309  -17.332460 O    1813 MOH    -0.6497 ****
11185 HO1    -5.796827  -16.940181  -17.222858 H    1813 MOH     0.4215 ****
11186 HC1     5.595448  -13.492933  -11.428825 H    1814 MOH     0.0372 ****
11187 C1      5.979386  -12.896074  -12.256140 C    1814 MOH     0.1166 ****
11188 HC2     6.667010  -13.513345  -12.834554 H    1814 MOH     0.0372 ****
11189 HC3     6.480526  -12.034262  -11.814199 H    1814 MOH     0.0372 ****
11190 O1      4.914175  -12.456390  -13.043150 O    1814 MOH    -0.6497 ****
11191 HO1     4.384744  -13.212466  -13.304780 H    1814 MOH     0.4215 ****
11192 HC1   -15.989369   -5.189162  -15.310842 H    1815 MOH     0.0372 ****
11193 C1    -16.155646   -4.118735  -15.192048 C    1815 MOH     0.1166 ****
11194 HC2   -15.802308   -3.797852  -14.211998 H    1815 MOH     0.0372 ****
11195 HC3   -17.222589   -3.905630  -15.264173 H    1815 MOH     0.0372 ****
11196 O1    -15.468599   -3.404301  -16.201796 O    1815 MOH    -0.6497 ****
11197 HO1   -15.559243   -3.934207  -16.996584 H    1815 MOH     0.4215 ****
11198 HC1    -9.326170    1.126847  -18.159775 H    1816 MOH     0.0372 ****
11199 C1     -8.454948    0.471608  -18.178867 C    1816 MOH     0.1166 ****
11200 HC2    -8.455525   -0.099939  -19.106591 H    1816 MOH     0.0372 ****
11201 HC3    -8.482661   -0.237519  -17.350845 H    1816 MOH     0.0372 ****
11202 O1     -7.276576    1.256262  -18.105328 O    1816 MOH    -0.6497 ****
11203 HO1    -7.306021    1.766980  -17.292862 H    1816 MOH     0.4215 ****
11204 HC1     5.487483   -8.036286  -12.693132 H    1817 MOH     0.0372 ****
11205 C1      6.127765   -8.911570  -12.584238 C    1817 MOH     0.1166 ****
11206 HC2     5.977654   -9.312470  -11.581560 H    1817 MOH     0.0372 ****
11207 HC3     7.166418   -8.598852  -12.690304 H    1817 MOH     0.0372 ****
11208 O1      5.748446   -9.853399  -13.587622 O    1817 MOH    -0.6497 ****
11209 HO1     5.677432  -10.726642  -13.195178 H    1817 MOH     0.4215 ****
11210 HC1   -13.511382   -5.638236  -15.634697 H    1818 MOH     0.0372 ****
11211 C1    -13.244069   -6.642935  -15.305892 C    1818 MOH     0.1166 ****
11212 HC2   -12.299524   -6.932383  -15.766219 H    1818 MOH     0.0372 ****
11213 HC3   -14.006748   -7.356553  -15.615605 H    1818 MOH     0.0372 ****
11214 O1    -13.076637   -6.635178  -13.876829 O    1818 MOH    -0.6497 ****
11215 HO1   -13.905135   -6.447384  -13.429938 H    1818 MOH     0.4215 ****
11216 HC1     3.623219   -5.822764   -8.272301 H    1819 MOH     0.0372 ****
11217 C1      4.481739   -5.461056   -8.837986 C    1819 MOH     0.1166 ****
11218 HC2     4.133597   -4.941764   -9.730355 H    1819 MOH     0.0372 ****
11219 HC3     5.111051   -6.301639   -9.131435 H    1819 MOH     0.0372 ****
11220 O1      5.231140   -4.571483   -8.042491 O    1819 MOH    -0.6497 ****
11221 HO1     5.398571   -4.989937   -7.194670 H    1819 MOH     0.4215 ****
11222 HC1     4.422272   -4.501672  -18.204323 H    1820 MOH     0.0372 ****
11223 C1      3.975403   -4.087709  -19.108005 C    1820 MOH     0.1166 ****
11224 HC2     2.947720   -3.768867  -18.936178 H    1820 MOH     0.0372 ****
11225 HC3     4.006003   -4.860114  -19.877337 H    1820 MOH     0.0372 ****
11226 O1      4.786003   -3.023405  -19.496207 O    1820 MOH    -0.6497 ****
11227 HO1     4.967868   -2.477169  -18.728289 H    1820 MOH     0.4215 ****
11228 HC1    -2.351778   -6.753978  -23.610154 H    1821 MOH     0.0372 ****
11229 C1     -3.276116   -6.238769  -23.871784 C    1821 MOH     0.1166 ****
11230 HC2    -3.989144   -6.285717  -23.048004 H    1821 MOH     0.0372 ****
11231 HC3    -3.712016   -6.684984  -24.764859 H    1821 MOH     0.0372 ****
11232 O1     -3.038248   -4.889508  -24.151091 O    1821 MOH    -0.6497 ****
11233 HO1    -2.533644   -4.859298  -24.967092 H    1821 MOH     0.4215 ****
11234 HC1   -10.629827    0.439357  -13.557924 H    1822 MOH     0.0372 ****
11235 C1    -11.000485    0.042539  -12.613229 C    1822 MOH     0.1166 ****
11236 HC2   -10.146007   -0.080343  -11.947842 H    1822 MOH     0.0372 ****
11237 HC3   -11.472181   -0.933174  -12.729195 H    1822 MOH     0.0372 ****
11238 O1    -11.855541    0.977836  -12.051080 O    1822 MOH    -0.6497 ****
11239 HO1   -11.670789    0.979469  -11.109213 H    1822 MOH     0.4215 ****
11240 HC1   -12.092255  -16.973658  -23.070632 H    1823 MOH     0.0372 ****
11241 C1    -11.578413  -16.664614  -22.160585 C    1823 MOH     0.1166 ****
11242 HC2   -10.495304  -16.690742  -22.276551 H    1823 MOH     0.0372 ****
11243 HC3   -11.881522  -17.303931  -21.330442 H    1823 MOH     0.0372 ****
11244 O1    -12.017777  -15.407209  -21.877742 O    1823 MOH    -0.6497 ****
11245 HO1   -12.349753  -15.045093  -22.702936 H    1823 MOH     0.4215 ****
11246 HC1   -10.632136    1.853121  -16.633132 H    1824 MOH     0.0372 ****
11247 C1    -10.065755    2.158082  -15.752784 C    1824 MOH     0.1166 ****
11248 HC2    -9.680085    1.264427  -15.261344 H    1824 MOH     0.0372 ****
11249 HC3   -10.719893    2.681865  -15.056283 H    1824 MOH     0.0372 ****
11250 O1     -8.971099    2.972537  -16.157956 O    1824 MOH    -0.6497 ****
11251 HO1    -9.322128    3.847822  -16.334732 H    1824 MOH     0.4215 ****
11252 HC1   -18.715617   -7.551695  -17.236294 H    1825 MOH     0.0372 ****
11253 C1    -18.156742   -6.919319  -16.546864 C    1825 MOH     0.1166 ****
11254 HC2   -18.111709   -5.918702  -16.977493 H    1825 MOH     0.0372 ****
11255 HC3   -17.143492   -7.313687  -16.466254 H    1825 MOH     0.0372 ****
11256 O1    -18.821850   -6.907071  -15.258516 O    1825 MOH    -0.6497 ****
11257 HO1   -18.354773   -7.525159  -14.692831 H    1825 MOH     0.4215 ****
11258 HC1   -10.240692  -13.764826  -19.337108 H    1826 MOH     0.0372 ****
11259 C1    -11.122884  -13.181439  -19.076185 C    1826 MOH     0.1166 ****
11260 HC2   -10.818620  -12.182864  -18.765058 H    1826 MOH     0.0372 ****
11261 HC3   -11.658087  -13.671337  -18.263013 H    1826 MOH     0.0372 ****
11262 O1    -11.943876  -13.126326  -20.243619 O    1826 MOH    -0.6497 ****
11263 HO1   -12.034520  -14.015082  -20.596465 H    1826 MOH     0.4215 ****
11264 HC1    -2.703962  -22.757311  -13.886021 H    1827 MOH     0.0372 ****
11265 C1     -1.866227  -22.529100  -14.545752 C    1827 MOH     0.1166 ****
11266 HC2    -1.508847  -21.527667  -14.310285 H    1827 MOH     0.0372 ****
11267 HC3    -2.216678  -22.574008  -15.576714 H    1827 MOH     0.0372 ****
11268 O1     -0.785427  -23.470929  -14.341398 O    1827 MOH    -0.6497 ****
11269 HO1     0.047689  -23.082685  -14.619291 H    1827 MOH     0.4215 ****
11270 HC1    -8.510374  -11.901989  -14.270688 H    1828 MOH     0.0372 ****
11271 C1     -8.822143  -10.858506  -14.306043 C    1828 MOH     0.1166 ****
11272 HC2    -8.016162  -10.201227  -13.977945 H    1828 MOH     0.0372 ****
11273 HC3    -9.665074  -10.735215  -13.627220 H    1828 MOH     0.0372 ****
11274 O1     -9.275363  -10.512312  -15.600048 O    1828 MOH    -0.6497 ****
11275 HO1    -9.486673   -9.576607  -15.570350 H    1828 MOH     0.4215 ****
11276 HC1    -1.814265   -3.888483   -6.773234 H    1829 MOH     0.0372 ****
11277 C1     -0.888773   -3.588829   -6.279674 C    1829 MOH     0.1166 ****
11278 HC2    -0.444791   -4.442885   -5.767729 H    1829 MOH     0.0372 ****
11279 HC3    -1.134724   -2.836836   -5.530141 H    1829 MOH     0.0372 ****
11280 O1     -0.006582   -3.089541   -7.305686 O    1829 MOH    -0.6497 ****
11281 HO1    -0.197107   -2.151387   -7.380639 H    1829 MOH     0.4215 ****
11282 HC1   -12.785075  -12.731141  -13.453979 H    1830 MOH     0.0372 ****
11283 C1    -12.013735  -13.024264  -12.741216 C    1830 MOH     0.1166 ****
11284 HC2   -11.115956  -13.280644  -13.304073 H    1830 MOH     0.0372 ****
11285 HC3   -12.343980  -13.912612  -12.202400 H    1830 MOH     0.0372 ****
11286 O1    -11.753350  -11.946896  -11.832583 O    1830 MOH    -0.6497 ****
11287 HO1   -12.419612  -11.971800  -11.141740 H    1830 MOH     0.4215 ****
11288 HC1   -12.914402  -12.120402   -7.570851 H    1831 MOH     0.0372 ****
11289 C1    -12.431160  -12.271046   -8.536052 C    1831 MOH     0.1166 ****
11290 HC2   -11.975630  -13.260639   -8.555851 H    1831 MOH     0.0372 ****
11291 HC3   -11.670789  -11.501906   -8.674645 H    1831 MOH     0.0372 ****
11292 O1    -13.462307  -12.221647   -9.522466 O    1831 MOH    -0.6497 ****
11293 HO1   -13.974994  -11.420664   -9.392358 H    1831 MOH     0.4215 ****
11294 HC1   -17.214506  -10.692758  -13.904406 H    1832 MOH     0.0372 ****
11295 C1    -16.626764   -9.777057  -13.842888 C    1832 MOH     0.1166 ****
11296 HC2   -16.160842   -9.566401  -14.805968 H    1832 MOH     0.0372 ****
11297 HC3   -15.838103   -9.925659  -13.106083 H    1832 MOH     0.0372 ****
11298 O1    -17.408496   -8.652333  -13.467414 O    1832 MOH    -0.6497 ****
11299 HO1   -17.808600   -8.816449  -12.610401 H    1832 MOH     0.4215 ****
11300 HC1    -3.479344   -8.085276  -16.354531 H    1833 MOH     0.0372 ****
11301 C1     -2.697611   -7.412074  -16.705963 C    1833 MOH     0.1166 ****
11302 HC2    -2.138159   -7.846859  -17.533985 H    1833 MOH     0.0372 ****
11303 HC3    -2.012296   -7.207134  -15.884305 H    1833 MOH     0.0372 ****
11304 O1     -3.271497   -6.212641  -17.151441 O    1833 MOH    -0.6497 ****
11305 HO1    -3.076353   -5.569242  -16.465547 H    1833 MOH     0.4215 ****
11306 HC1     1.420513   14.655624  -16.083002 H    1834 MOH     0.0372 ****
11307 C1      0.384169   14.794428  -15.776118 C    1834 MOH     0.1166 ****
11308 HC2    -0.179325   15.158586  -16.634546 H    1834 MOH     0.0372 ****
11309 HC3     0.314310   15.544380  -14.987694 H    1834 MOH     0.0372 ****
11310 O1     -0.141220   13.551720  -15.358925 O    1834 MOH    -0.6497 ****
11311 HO1    -0.903899   13.703997  -14.796775 H    1834 MOH     0.4215 ****
11312 HC1    14.286763   10.102839  -13.265889 H    1835 MOH     0.0372 ****
11313 C1     14.720354   10.295940  -12.285132 C    1835 MOH     0.1166 ****
11314 HC2    15.006142   11.346771  -12.234220 H    1835 MOH     0.0372 ****
11315 HC3    15.608318    9.676627  -12.158560 H    1835 MOH     0.0372 ****
11316 O1     13.765994    9.981181  -11.277505 O    1835 MOH    -0.6497 ****
11317 HO1    13.966911    9.089566  -10.984762 H    1835 MOH     0.4215 ****
11318 HC1     7.649545   -0.750850  -20.898399 H    1836 MOH     0.0372 ****
11319 C1      7.462483   -1.736770  -20.473428 C    1836 MOH     0.1166 ****
11320 HC2     7.070463   -1.642056  -19.460851 H    1836 MOH     0.0372 ****
11321 HC3     8.419730   -2.253204  -20.404839 H    1836 MOH     0.0372 ****
11322 O1      6.621284   -2.540611  -21.322663 O    1836 MOH    -0.6497 ****
11323 HO1     5.905370   -2.886805  -20.785262 H    1836 MOH     0.4215 ****
11324 HC1    18.356506    8.491483  -17.881175 H    1837 MOH     0.0372 ****
11325 C1     18.161939    9.232862  -17.106186 C    1837 MOH     0.1166 ****
11326 HC2    17.097882    9.274911  -16.873548 H    1837 MOH     0.0372 ****
11327 HC3    18.463315   10.221231  -17.453375 H    1837 MOH     0.0372 ****
11328 O1     18.831665    8.902589  -15.894912 O    1837 MOH    -0.6497 ****
11329 HO1    18.614004    8.008117  -15.622676 H    1837 MOH     0.4215 ****
11330 HC1     2.470135   13.204301  -11.413976 H    1838 MOH     0.0372 ****
11331 C1      3.074044   13.755844  -10.693434 C    1838 MOH     0.1166 ****
11332 HC2     3.885798   13.120610  -10.339881 H    1838 MOH     0.0372 ****
11333 HC3     2.425680   14.041618   -9.864705 H    1838 MOH     0.0372 ****
11334 O1      3.578648   14.879752  -11.348922 O    1838 MOH    -0.6497 ****
11335 HO1     4.391557   15.141439  -10.909809 H    1838 MOH     0.4215 ****
11336 HC1     9.174327    6.796844  -23.875319 H    1839 MOH     0.0372 ****
11337 C1      8.382202    6.264488  -23.349232 C    1839 MOH     0.1166 ****
11338 HC2     8.409338    6.522093  -22.290693 H    1839 MOH     0.0372 ****
11339 HC3     8.547902    5.196919  -23.491360 H    1839 MOH     0.0372 ****
11340 O1      7.153601    6.680085  -23.905018 O    1839 MOH    -0.6497 ****
11341 HO1     6.459049    6.321235  -23.347110 H    1839 MOH     0.4215 ****
11342 HC1    13.239450   12.855657  -16.352410 H    1840 MOH     0.0372 ****
11343 C1     13.287948   11.768083  -16.403322 C    1840 MOH     0.1166 ****
11344 HC2    12.909783   11.413316  -17.361451 H    1840 MOH     0.0372 ****
11345 HC3    12.681152   11.321460  -15.615605 H    1840 MOH     0.0372 ****
11346 O1     14.624513   11.333707  -16.329783 O    1840 MOH    -0.6497 ****
11347 HO1    14.592182   10.374324  -16.308569 H    1840 MOH     0.4215 ****
11348 HC1     4.329203   11.830954  -21.925826 H    1841 MOH     0.0372 ****
11349 C1      4.374814   11.376165  -22.915775 C    1841 MOH     0.1166 ****
11350 HC2     5.292224   10.797269  -23.024670 H    1841 MOH     0.0372 ****
11351 HC3     4.364422   12.153878  -23.678743 H    1841 MOH     0.0372 ****
11352 O1      3.271498   10.539664  -23.132857 O    1841 MOH    -0.6497 ****
11353 HO1     3.530728    9.652133  -22.875470 H    1841 MOH     0.4215 ****
11354 HC1    12.436356    7.274086  -23.430549 H    1842 MOH     0.0372 ****
11355 C1     12.634964    8.234694  -22.956080 C    1842 MOH     0.1166 ****
11356 HC2    13.699598    8.451883  -23.039519 H    1842 MOH     0.0372 ****
11357 HC3    12.405756    8.199585  -21.891177 H    1842 MOH     0.0372 ****
11358 O1     11.841685    9.230412  -23.607326 O    1842 MOH    -0.6497 ****
11359 HO1    11.889028   10.006492  -23.043761 H    1842 MOH     0.4215 ****
11360 HC1    -4.869141   10.669487  -10.824956 H    1843 MOH     0.0372 ****
11361 C1     -3.828756   10.696840  -11.150933 C    1843 MOH     0.1166 ****
11362 HC2    -3.244477   10.057115  -10.488374 H    1843 MOH     0.0372 ****
11363 HC3    -3.487542   11.730525  -11.097193 H    1843 MOH     0.0372 ****
11364 O1     -3.761783   10.214699  -12.473929 O    1843 MOH    -0.6497 ****
11365 HO1    -4.356454    9.461889  -12.517770 H    1843 MOH     0.4215 ****
11366 HC1    -1.988741    5.987288  -14.984866 H    1844 MOH     0.0372 ****
11367 C1     -1.074218    6.293474  -15.492568 C    1844 MOH     0.1166 ****
11368 HC2    -0.478970    6.947896  -14.855465 H    1844 MOH     0.0372 ****
11369 HC3    -1.349614    6.839710  -16.394836 H    1844 MOH     0.0372 ****
11370 O1     -0.372160    5.154053  -15.890669 O    1844 MOH    -0.6497 ****
11371 HO1     0.562570    5.352870  -15.800867 H    1844 MOH     0.4215 ****
11372 HC1    -5.042923    5.649666  -19.840568 H    1845 MOH     0.0372 ****
11373 C1     -5.000200    5.891349  -18.778493 C    1845 MOH     0.1166 ****
11374 HC2    -3.963278    5.829296  -18.447567 H    1845 MOH     0.0372 ****
11375 HC3    -5.597757    5.189570  -18.196545 H    1845 MOH     0.0372 ****
11376 O1     -5.433790    7.185088  -18.509086 O    1845 MOH    -0.6497 ****
11377 HO1    -6.203398    7.376557  -19.050022 H    1845 MOH     0.4215 ****
11378 HC1    -7.646196    9.587221  -12.125326 H    1846 MOH     0.0372 ****
11379 C1     -8.080941    8.701731  -11.662171 C    1846 MOH     0.1166 ****
11380 HC2    -8.493169    8.026896  -12.412411 H    1846 MOH     0.0372 ****
11381 HC3    -8.903087    8.987913  -11.005269 H    1846 MOH     0.0372 ****
11382 O1     -7.175655    7.999135  -10.866676 O    1846 MOH    -0.6497 ****
11383 HO1    -7.702199    7.281435  -10.506051 H    1846 MOH     0.4215 ****
11384 HC1    18.035499   10.521293  -14.099568 H    1847 MOH     0.0372 ****
11385 C1     18.118060   11.461081  -13.553681 C    1847 MOH     0.1166 ****
11386 HC2    17.291294   12.116728  -13.826624 H    1847 MOH     0.0372 ****
11387 HC3    19.075307   11.923218  -13.798340 H    1847 MOH     0.0372 ****
11388 O1     18.077068   11.103047  -12.212300 O    1847 MOH    -0.6497 ****
11389 HO1    18.301080   11.846059  -11.648028 H    1847 MOH     0.4215 ****
11390 HC1     5.942897   15.145522  -14.356248 H    1848 MOH     0.0372 ****
11391 C1      5.277213   16.004476  -14.271395 C    1848 MOH     0.1166 ****
11392 HC2     4.235095   15.684409  -14.278466 H    1848 MOH     0.0372 ****
11393 HC3     5.412313   16.629096  -15.153864 H    1848 MOH     0.0372 ****
11394 O1      5.502956   16.801377  -13.067899 O    1848 MOH    -0.6497 ****
11395 HO1     5.430210   16.234320  -12.297860 H    1848 MOH     0.4215 ****
11396 HC1    -1.733552    7.759085  -19.453780 H    1849 MOH     0.0372 ****
11397 C1     -2.273952    8.628654  -19.827133 C    1849 MOH     0.1166 ****
11398 HC2    -2.717357    8.299198  -20.766878 H    1849 MOH     0.0372 ****
11399 HC3    -1.551109    9.431678  -19.973504 H    1849 MOH     0.0372 ****
11400 O1     -3.265262    8.967092  -18.833648 O    1849 MOH    -0.6497 ****
11401 HO1    -3.900925    8.253066  -18.750916 H    1849 MOH     0.4215 ****
11402 HC1    -3.290088    0.987063  -23.762889 H    1850 MOH     0.0372 ****
11403 C1     -2.877283    1.994619  -23.799659 C    1850 MOH     0.1166 ****
11404 HC2    -2.962730    2.465330  -22.820316 H    1850 MOH     0.0372 ****
11405 HC3    -3.454055    2.582497  -24.513837 H    1850 MOH     0.0372 ****
11406 O1     -1.537830    1.939098  -24.230994 O    1850 MOH    -0.6497 ****
11407 HO1    -1.504344    1.278552  -24.926787 H    1850 MOH     0.4215 ****
11408 HC1    12.823181   -0.856178  -17.814000 H    1851 MOH     0.0372 ****
11409 C1     12.143062   -1.424868  -17.179725 C    1851 MOH     0.1166 ****
11410 HC2    12.497555   -1.387718  -16.149470 H    1851 MOH     0.0372 ****
11411 HC3    12.088214   -2.461411  -17.511358 H    1851 MOH     0.0372 ****
11412 O1     10.910419   -0.801881  -17.261749 O    1851 MOH    -0.6497 ****
11413 HO1    11.012610    0.090958  -16.925873 H    1851 MOH     0.4215 ****
11414 HC1     2.883518   19.399469  -11.622573 H    1852 MOH     0.0372 ****
11415 C1      2.429144   19.697490  -12.567268 C    1852 MOH     0.1166 ****
11416 HC2     1.348344   19.562768  -12.519184 H    1852 MOH     0.0372 ****
11417 HC3     2.851764   19.072870  -13.354984 H    1852 MOH     0.0372 ****
11418 O1      2.710891   21.054916  -12.826776 O    1852 MOH    -0.6497 ****
11419 HO1     2.441268   21.249242  -13.727630 H    1852 MOH     0.4215 ****
11420 HC1     3.924481   22.313137   -8.499282 H    1853 MOH     0.0372 ****
11421 C1      3.582689   21.643610   -9.288413 C    1853 MOH     0.1166 ****
11422 HC2     3.084436   20.767509   -8.872635 H    1853 MOH     0.0372 ****
11423 HC3     4.455066   21.325584   -9.859049 H    1853 MOH     0.0372 ****
11424 O1      2.801535   22.373558  -10.210481 O    1853 MOH    -0.6497 ****
11425 HO1     2.828670   21.886517  -11.037088 H    1853 MOH     0.4215 ****
11426 HC1     9.454342   13.643576  -11.539841 H    1854 MOH     0.0372 ****
11427 C1      9.937007   12.677661  -11.686919 C    1854 MOH     0.1166 ****
11428 HC2     9.163935   11.923626  -11.834705 H    1854 MOH     0.0372 ****
11429 HC3    10.501655   12.435161  -10.787480 H    1854 MOH     0.0372 ****
11430 O1     10.845179   12.705422  -12.809805 O    1854 MOH    -0.6497 ****
11431 HO1    11.556474   13.309629  -12.580702 H    1854 MOH     0.4215 ****
11432 HC1     4.147338    5.401043  -20.199071 H    1855 MOH     0.0372 ****
11433 C1      3.986257    4.388179  -19.830668 C    1855 MOH     0.1166 ****
11434 HC2     3.235125    4.433086  -19.042951 H    1855 MOH     0.0372 ****
11435 HC3     4.911173    3.987688  -19.415597 H    1855 MOH     0.0372 ****
11436 O1      3.534769    3.541472  -20.887086 O    1855 MOH    -0.6497 ****
11437 HO1     3.939492    2.683334  -20.737179 H    1855 MOH     0.4215 ****
11438 HC1    13.152848   -0.481815  -12.584945 H    1856 MOH     0.0372 ****
11439 C1     12.986571   -0.394858  -11.510850 C    1856 MOH     0.1166 ****
11440 HC2    13.058739    0.661281  -11.251342 H    1856 MOH     0.0372 ****
11441 HC3    13.773499   -0.948851  -10.998197 H    1856 MOH     0.0372 ****
11442 O1     11.660974   -0.913741  -11.276797 O    1856 MOH    -0.6497 ****
11443 HO1    11.349783   -0.565097  -10.438169 H    1856 MOH     0.4215 ****
11444 HC1     7.948612   18.444984  -20.411910 H    1857 MOH     0.0372 ****
11445 C1      7.367798   18.826288  -19.571867 C    1857 MOH     0.1166 ****
11446 HC2     7.665133   19.833437  -19.279832 H    1857 MOH     0.0372 ****
11447 HC3     7.575644   18.171050  -18.725460 H    1857 MOH     0.0372 ****
11448 O1      5.988508   18.782606  -19.856831 O    1857 MOH    -0.6497 ****
11449 HO1     5.583208   18.107771  -19.307409 H    1857 MOH     0.4215 ****
11450 HC1    -3.473686    8.088133   -9.385994 H    1858 MOH     0.0372 ****
11451 C1     -3.865129    7.318994  -10.050674 C    1858 MOH     0.1166 ****
11452 HC2    -3.365721    7.352878  -11.018704 H    1858 MOH     0.0372 ****
11453 HC3    -4.936691    7.481476  -10.175125 H    1858 MOH     0.0372 ****
11454 O1     -3.724256    6.052199   -9.465897 O    1858 MOH    -0.6497 ****
11455 HO1    -4.170547    6.051791   -8.616662 H    1858 MOH     0.4215 ****
11456 HC1     6.881092    9.447192  -14.634848 H    1859 MOH     0.0372 ****
11457 C1      5.817612    9.648050  -14.766369 C    1859 MOH     0.1166 ****
11458 HC2     5.235643    8.727042  -14.739499 H    1859 MOH     0.0372 ****
11459 HC3     5.652490   10.118760  -15.735813 H    1859 MOH     0.0372 ****
11460 O1      5.367279   10.538440  -13.787027 O    1859 MOH    -0.6497 ****
11461 HO1     5.477553   11.432912  -14.117245 H    1859 MOH     0.4215 ****
11462 HC1    10.594031   12.374740  -17.431455 H    1860 MOH     0.0372 ****
11463 C1     10.189886   12.720527  -18.382514 C    1860 MOH     0.1166 ****
11464 HC2     9.256888   12.197152  -18.594646 H    1860 MOH     0.0372 ****
11465 HC3    10.910997   12.575599  -19.186494 H    1860 MOH     0.0372 ****
11466 O1      9.943357   14.086525  -18.228364 O    1860 MOH    -0.6497 ****
11467 HO1    10.767814   14.542131  -18.040274 H    1860 MOH     0.4215 ****
11468 HC1     5.791632   13.046717  -19.895015 H    1861 MOH     0.0372 ****
11469 C1      5.554341   12.760127  -18.869710 C    1861 MOH     0.1166 ****
11470 HC2     6.316443   12.097540  -18.460295 H    1861 MOH     0.0372 ****
11471 HC3     4.601135   12.231445  -18.888802 H    1861 MOH     0.0372 ****
11472 O1      5.452727   13.886484  -18.031789 O    1861 MOH    -0.6497 ****
11473 HO1     6.226376   14.442926  -18.151290 H    1861 MOH     0.4215 ****
11474 HC1     3.482808   -1.935587  -13.543075 H    1862 MOH     0.0372 ****
11475 C1      3.075776   -0.934970  -13.688032 C    1862 MOH     0.1166 ****
11476 HC2     2.030195   -0.980694  -13.993502 H    1862 MOH     0.0372 ****
11477 HC3     3.632342   -0.477324  -14.504740 H    1862 MOH     0.0372 ****
11478 O1      3.230506   -0.111125  -12.531205 O    1862 MOH    -0.6497 ****
11479 HO1     3.513407    0.769058  -12.791420 H    1862 MOH     0.4215 ****
11480 HC1    12.833573   14.262072  -19.098106 H    1863 MOH     0.0372 ****
11481 C1     13.253884   15.145522  -18.617273 C    1863 MOH     0.1166 ****
11482 HC2    13.507341   15.887309  -19.374584 H    1863 MOH     0.0372 ****
11483 HC3    14.140694   14.862605  -18.050880 H    1863 MOH     0.0372 ****
11484 O1     12.248717   15.641951  -17.794201 O    1863 MOH    -0.6497 ****
11485 HO1    12.604942   15.838319  -16.925166 H    1863 MOH     0.4215 ****
11486 HC1     7.184778   16.569900   -6.522212 H    1864 MOH     0.0372 ****
11487 C1      7.142054   17.443960   -7.172043 C    1864 MOH     0.1166 ****
11488 HC2     7.942839   18.144105   -6.933748 H    1864 MOH     0.0372 ****
11489 HC3     6.202705   17.959985   -6.976881 H    1864 MOH     0.0372 ****
11490 O1      7.142631   17.089600   -8.563629 O    1864 MOH    -0.6497 ****
11491 HO1     7.251750   17.882010   -9.094666 H    1864 MOH     0.4215 ****
11492 HC1     1.498455   12.300439  -17.908045 H    1865 MOH     0.0372 ****
11493 C1      0.915909   11.427604  -17.612474 C    1865 MOH     0.1166 ****
11494 HC2     1.251926   10.512720  -18.099671 H    1865 MOH     0.0372 ****
11495 HC3    -0.104269   11.607642  -17.949764 H    1865 MOH     0.0372 ****
11496 O1      0.908980   11.280635  -16.209574 O    1865 MOH    -0.6497 ****
11497 HO1     0.722496   12.142447  -15.828444 H    1865 MOH     0.4215 ****
11498 HC1     0.667648    9.285934  -13.637120 H    1866 MOH     0.0372 ****
11499 C1      1.699373    9.002201  -13.842888 C    1866 MOH     0.1166 ****
11500 HC2     1.970150    8.176315  -13.185986 H    1866 MOH     0.0372 ****
11501 HC3     2.347737    9.852991  -13.632170 H    1866 MOH     0.0372 ****
11502 O1      1.837360    8.682951  -15.204776 O    1866 MOH    -0.6497 ****
11503 HO1     1.540602    9.475769  -15.657324 H    1866 MOH     0.4215 ****
11504 HC1     6.161713    8.558435  -19.323673 H    1867 MOH     0.0372 ****
11505 C1      6.176147    9.265930  -20.153109 C    1867 MOH     0.1166 ****
11506 HC2     5.185414    9.697040  -20.294530 H    1867 MOH     0.0372 ****
11507 HC3     6.515052    8.772766  -21.063862 H    1867 MOH     0.0372 ****
11508 O1      7.053142   10.317577  -19.846225 O    1867 MOH    -0.6497 ****
11509 HO1     7.249441   10.324517  -18.906480 H    1867 MOH     0.4215 ****
11510 HC1    12.293173    4.723759   -5.994003 H    1868 MOH     0.0372 ****
11511 C1     12.368228    5.765609   -6.303715 C    1868 MOH     0.1166 ****
11512 HC2    13.406882    5.990145   -6.546960 H    1868 MOH     0.0372 ****
11513 HC3    12.006230    6.366959   -5.468622 H    1868 MOH     0.0372 ****
11514 O1     11.480264    5.923193   -7.379932 O    1868 MOH    -0.6497 ****
11515 HO1    11.847459    5.402676   -8.097645 H    1868 MOH     0.4215 ****
11516 HC1    -0.041916   13.040593  -12.439988 H    1869 MOH     0.0372 ****
11517 C1     -0.281516   12.407809  -11.585803 C    1869 MOH     0.1166 ****
11518 HC2    -1.327097   12.532324  -11.305082 H    1869 MOH     0.0372 ****
11519 HC3     0.350683   12.715220  -10.752124 H    1869 MOH     0.0372 ****
11520 O1      0.020438   11.057731  -11.901880 O    1869 MOH    -0.6497 ****
11521 HO1    -0.442019   10.784613  -12.697375 H    1869 MOH     0.4215 ****
11522 HC1    -2.635373    5.102205  -21.539745 H    1870 MOH     0.0372 ****
11523 C1     -1.847290    5.136498  -22.292107 C    1870 MOH     0.1166 ****
11524 HC2    -2.267601    5.528008  -23.219124 H    1870 MOH     0.0372 ****
11525 HC3    -1.449495    4.138739  -22.478783 H    1870 MOH     0.0372 ****
11526 O1     -0.840968    6.036686  -21.942089 O    1870 MOH    -0.6497 ****
11527 HO1    -0.013625    5.571691  -22.085632 H    1870 MOH     0.4215 ****
11528 HC1     0.568344    4.481668  -24.257864 H    1871 MOH     0.0372 ****
11529 C1      0.998470    3.911753  -23.433377 C    1871 MOH     0.1166 ****
11530 HC2     1.773851    3.267946  -23.848449 H    1871 MOH     0.0372 ****
11531 HC3     0.253111    3.263047  -22.973051 H    1871 MOH     0.0372 ****
11532 O1      1.567737    4.806225  -22.493632 O    1871 MOH    -0.6497 ****
11533 HO1     1.982275    4.266929  -21.816931 H    1871 MOH     0.4215 ****
11534 HC1    10.915615   13.196952  -21.972495 H    1872 MOH     0.0372 ****
11535 C1     11.659242   12.676028  -22.574950 C    1872 MOH     0.1166 ****
11536 HC2    12.574920   13.265538  -22.623033 H    1872 MOH     0.0372 ****
11537 HC3    11.323225   12.554778  -23.605204 H    1872 MOH     0.0372 ****
11538 O1     11.997570   11.447200  -21.990879 O    1872 MOH    -0.6497 ****
11539 HO1    11.293780   11.175715  -21.397617 H    1872 MOH     0.4215 ****
11540 HC1    15.793070    6.199985  -19.559139 H    1873 MOH     0.0372 ****
11541 C1     15.270568    7.129158  -19.331451 C    1873 MOH     0.1166 ****
11542 HC2    14.238266    6.916053  -19.052851 H    1873 MOH     0.0372 ****
11543 HC3    15.310983    7.775415  -20.207556 H    1873 MOH     0.0372 ****
11544 O1     15.958193    7.692541  -18.265134 O    1873 MOH    -0.6497 ****
11545 HO1    16.420650    6.977290  -17.822485 H    1873 MOH     0.4215 ****
11546 HC1    10.666200    8.344513  -19.940270 H    1874 MOH     0.0372 ****
11547 C1      9.729161    8.600485  -20.433123 C    1874 MOH     0.1166 ****
11548 HC2     8.890848    8.268579  -19.820062 H    1874 MOH     0.0372 ****
11549 HC3     9.710685    8.101606  -21.401859 H    1874 MOH     0.0372 ****
11550 O1      9.698561    9.984038  -20.650205 O    1874 MOH    -0.6497 ****
11551 HO1     8.782306   10.225313  -20.802233 H    1874 MOH     0.4215 ****
11552 HC1     0.719609    7.642326  -10.698384 H    1875 MOH     0.0372 ****
11553 C1     -0.290176    8.041593  -10.606460 C    1875 MOH     0.1166 ****
11554 HC2    -0.902745    7.300214  -10.093101 H    1875 MOH     0.0372 ****
11555 HC3    -0.691435    8.233470  -11.602067 H    1875 MOH     0.0372 ****
11556 O1     -0.222049    9.230412   -9.844199 O    1875 MOH    -0.6497 ****
11557 HO1     0.112237    9.923618  -10.418370 H    1875 MOH     0.4215 ****
11558 HC1     7.336621    3.634553  -21.647933 H    1876 MOH     0.0372 ****
11559 C1      7.642039    2.654349  -22.014921 C    1876 MOH     0.1166 ****
11560 HC2     8.591203    2.733957  -22.544544 H    1876 MOH     0.0372 ****
11561 HC3     6.875318    2.262022  -22.681723 H    1876 MOH     0.0372 ****
11562 O1      7.795614    1.733749  -20.940826 O    1876 MOH    -0.6497 ****
11563 HO1     8.644897    1.299781  -21.049013 H    1876 MOH     0.4215 ****
11564 HC1    13.177674    0.986246  -14.974966 H    1877 MOH     0.0372 ****
11565 C1     14.048895    1.489616  -15.394280 C    1877 MOH     0.1166 ****
11566 HC2    13.750982    2.438794  -15.837636 H    1877 MOH     0.0372 ****
11567 HC3    14.487681    0.878060  -16.183411 H    1877 MOH     0.0372 ****
11568 O1     15.017689    1.764776  -14.408573 O    1877 MOH    -0.6497 ****
11569 HO1    15.447815    0.926642  -14.225433 H    1877 MOH     0.4215 ****
11570 HC1    -3.536617   14.878527  -12.274525 H    1878 MOH     0.0372 ****
11571 C1     -2.674055   15.341481  -12.753944 C    1878 MOH     0.1166 ****
11572 HC2    -1.887127   15.456199  -12.007946 H    1878 MOH     0.0372 ****
11573 HC3    -2.991021   16.333524  -13.076384 H    1878 MOH     0.0372 ****
11574 O1     -2.291272   14.553970  -13.912892 O    1878 MOH    -0.6497 ****
11575 HO1    -2.985247   14.600102  -14.574037 H    1878 MOH     0.4215 ****
11576 HC1     3.149677   10.315944   -6.013802 H    1879 MOH     0.0372 ****
11577 C1      3.757627   11.186738   -6.261996 C    1879 MOH     0.1166 ****
11578 HC2     4.807249   10.917294   -6.376548 H    1879 MOH     0.0372 ****
11579 HC3     3.701046   11.908929   -5.446702 H    1879 MOH     0.0372 ****
11580 O1      3.362719   11.748896   -7.471856 O    1879 MOH    -0.6497 ****
11581 HO1     3.644466   11.150404   -8.167649 H    1879 MOH     0.4215 ****
11582 HC1     4.622497    7.310012  -26.722838 H    1880 MOH     0.0372 ****
11583 C1      5.546258    7.498215  -27.270846 C    1880 MOH     0.1166 ****
11584 HC2     6.136887    6.583330  -27.233369 H    1880 MOH     0.0372 ****
11585 HC3     6.068760    8.321651  -26.783649 H    1880 MOH     0.0372 ****
11586 O1      5.273171    7.850533  -28.624955 O    1880 MOH    -0.6497 ****
11587 HO1     6.054903    8.272662  -28.988408 H    1880 MOH     0.4215 ****
11588 HC1     8.730345   16.565817  -16.701721 H    1881 MOH     0.0372 ****
11589 C1      7.715363   16.182472  -16.805665 C    1881 MOH     0.1166 ****
11590 HC2     6.994252   16.999785  -16.784452 H    1881 MOH     0.0372 ****
11591 HC3     7.480381   15.487634  -15.999564 H    1881 MOH     0.0372 ****
11592 O1      7.587768   15.470487  -17.987948 O    1881 MOH    -0.6497 ****
11593 HO1     8.308301   14.837294  -18.019768 H    1881 MOH     0.4215 ****
11594 HC1     2.209173    2.571882  -15.812180 H    1882 MOH     0.0372 ****
11595 C1      3.065961    2.313870  -16.435849 C    1882 MOH     0.1166 ****
11596 HC2     3.251868    3.107096  -17.159219 H    1882 MOH     0.0372 ****
11597 HC3     2.820010    1.410008  -16.993049 H    1882 MOH     0.0372 ****
11598 O1      4.229322    2.123218  -15.634697 O    1882 MOH    -0.6497 ****
11599 HO1     4.925606    1.775390  -16.196139 H    1882 MOH     0.4215 ****
11600 HC1    11.604394    8.283684   -9.441855 H    1883 MOH     0.0372 ****
11601 C1     10.982010    9.178156   -9.451048 C    1883 MOH     0.1166 ****
11602 HC2    11.425993    9.965259   -8.841522 H    1883 MOH     0.0372 ****
11603 HC3    10.010330    8.900139   -9.041633 H    1883 MOH     0.0372 ****
11604 O1     10.802455    9.630904  -10.772630 O    1883 MOH    -0.6497 ****
11605 HO1    11.659820    9.906471  -11.105678 H    1883 MOH     0.4215 ****
11606 HC1     7.588346   13.930575  -20.922441 H    1884 MOH     0.0372 ****
11607 C1      8.181284   13.592137  -21.771676 C    1884 MOH     0.1166 ****
11608 HC2     8.548479   12.596419  -21.523482 H    1884 MOH     0.0372 ****
11609 HC3     9.028257   14.262072  -21.923704 H    1884 MOH     0.0372 ****
11610 O1      7.377036   13.541106  -22.941938 O    1884 MOH    -0.6497 ****
11611 HO1     7.784067   12.890766  -23.519644 H    1884 MOH     0.4215 ****
11612 HC1     3.344821   14.251458  -15.259930 H    1885 MOH     0.0372 ****
11613 C1      3.526109   13.213282  -14.980623 C    1885 MOH     0.1166 ****
11614 HC2     2.866775   12.576007  -15.569643 H    1885 MOH     0.0372 ****
11615 HC3     3.301520   13.058556  -13.924912 H    1885 MOH     0.0372 ****
11616 O1      4.856324   12.817690  -15.221746 O    1885 MOH    -0.6497 ****
11617 HO1     5.035880   12.925876  -16.158663 H    1885 MOH     0.4215 ****
11618 HC1     7.233275    8.463314  -11.601360 H    1886 MOH     0.0372 ****
11619 C1      7.687073    9.342680  -11.144569 C    1886 MOH     0.1166 ****
11620 HC2     8.524230    9.659481  -11.766823 H    1886 MOH     0.0372 ****
11621 HC3     7.990759    9.093649  -10.127749 H    1886 MOH     0.0372 ****
11622 O1      6.736754   10.340439  -11.179924 O    1886 MOH    -0.6497 ****
11623 HO1     6.408819   10.395961  -12.080778 H    1886 MOH     0.4215 ****
11624 HC1    -0.933922   19.935907  -13.930569 H    1887 MOH     0.0372 ****
11625 C1     -1.841516   19.872220  -13.330943 C    1887 MOH     0.1166 ****
11626 HC2    -2.452353   19.025513  -13.643484 H    1887 MOH     0.0372 ****
11627 HC3    -2.390576   20.804251  -13.463172 H    1887 MOH     0.0372 ****
11628 O1     -1.469703   19.688917  -12.006532 O    1887 MOH    -0.6497 ****
11629 HO1    -0.942582   18.886301  -12.007946 H    1887 MOH     0.4215 ****
11630 HC1    14.596223   11.782372   -6.224520 H    1888 MOH     0.0372 ****
11631 C1     14.343344   12.647042   -5.610751 C    1888 MOH     0.1166 ****
11632 HC2    15.151057   12.830346   -4.902937 H    1888 MOH     0.0372 ****
11633 HC3    13.425357   12.414341   -5.071935 H    1888 MOH     0.0372 ****
11634 O1     14.151086   13.755436   -6.467057 O    1888 MOH    -0.6497 ****
11635 HO1    13.465771   13.484359   -7.082240 H    1888 MOH     0.4215 ****
11636 HC1    10.855571    4.522901   -9.758639 H    1889 MOH     0.0372 ****
11637 C1     11.678295    3.832145   -9.943901 C    1889 MOH     0.1166 ****
11638 HC2    11.953691    3.953395  -10.991126 H    1889 MOH     0.0372 ****
11639 HC3    11.369990    2.792337   -9.837128 H    1889 MOH     0.0372 ****
11640 O1     12.768332    4.142822   -9.059311 O    1889 MOH    -0.6497 ****
11641 HO1    13.379169    3.402260   -9.046583 H    1889 MOH     0.4215 ****
11642 HC1     4.505873    6.008517  -24.226751 H    1890 MOH     0.0372 ****
11643 C1      4.785888    5.100164  -23.692885 C    1890 MOH     0.1166 ****
11644 HC2     5.594178    4.604551  -24.230287 H    1890 MOH     0.0372 ****
11645 HC3     3.955081    4.394303  -23.669551 H    1890 MOH     0.0372 ****
11646 O1      5.223519    5.361443  -22.373424 O    1890 MOH    -0.6497 ****
11647 HO1     4.875954    4.656806  -21.821881 H    1890 MOH     0.4215 ****
11648 HC1    15.689725    5.480652  -10.823542 H    1891 MOH     0.0372 ****
11649 C1     14.858340    6.164059  -10.993248 C    1891 MOH     0.1166 ****
11650 HC2    13.936312    5.703963  -10.636159 H    1891 MOH     0.0372 ****
11651 HC3    14.787903    6.352262  -12.064514 H    1891 MOH     0.0372 ****
11652 O1     15.186275    7.384722  -10.341295 O    1891 MOH    -0.6497 ****
11653 HO1    15.799421    7.187538   -9.629239 H    1891 MOH     0.4215 ****
11654 HC1     8.196295    7.710096   -2.340382 H    1892 MOH     0.0372 ****
11655 C1      7.304867    8.336757   -2.372202 C    1892 MOH     0.1166 ****
11656 HC2     6.416325    7.706013   -2.412507 H    1892 MOH     0.0372 ****
11657 HC3     7.314104    8.954845   -3.270227 H    1892 MOH     0.0372 ****
11658 O1      7.315259    9.184280   -1.250730 O    1892 MOH    -0.6497 ****
11659 HO1     8.071010    9.764401   -1.367403 H    1892 MOH     0.4215 ****
11660 HC1    15.449547    8.306954  -14.801018 H    1893 MOH     0.0372 ****
11661 C1     14.439761    7.986071  -15.056990 C    1893 MOH     0.1166 ****
11662 HC2    13.742322    8.416773  -14.337863 H    1893 MOH     0.0372 ****
11663 HC3    14.358355    6.899723  -15.022342 H    1893 MOH     0.0372 ****
11664 O1     14.084691    8.445351  -16.329075 O    1893 MOH    -0.6497 ****
11665 HO1    14.683403    8.037919  -16.958400 H    1893 MOH     0.4215 ****
11666 HC1     9.853291    8.971991   -3.753888 H    1894 MOH     0.0372 ****
11667 C1     10.077880   10.037927   -3.703684 C    1894 MOH     0.1166 ****
11668 HC2     9.718768   10.585796   -4.574839 H    1894 MOH     0.0372 ****
11669 HC3    11.163876   10.084468   -3.775809 H    1894 MOH     0.0372 ****
11670 O1      9.717036   10.636011   -2.437256 O    1894 MOH    -0.6497 ****
11671 HO1     9.644867   11.584780   -2.563121 H    1894 MOH     0.4215 ****
11672 HC1     8.939923   -4.478974  -12.386248 H    1895 MOH     0.0372 ****
11673 C1      9.521314   -3.721673  -11.859453 C    1895 MOH     0.1166 ****
11674 HC2    10.574979   -3.965806  -11.996632 H    1895 MOH     0.0372 ****
11675 HC3     9.291529   -3.711059  -10.794551 H    1895 MOH     0.0372 ****
11676 O1      9.393143   -2.461411  -12.411704 O    1895 MOH    -0.6497 ****
11677 HO1    10.191618   -1.984985  -12.170580 H    1895 MOH     0.4215 ****
11678 HC1    11.252788   15.415374  -13.526811 H    1896 MOH     0.0372 ****
11679 C1     10.760308   15.851791  -14.395846 C    1896 MOH     0.1166 ****
11680 HC2     9.818072   16.339240  -14.145530 H    1896 MOH     0.0372 ****
11681 HC3    10.508006   15.017332  -15.050626 H    1896 MOH     0.0372 ****
11682 O1     11.598043   16.776882  -15.095881 O    1896 MOH    -0.6497 ****
11683 HO1    11.057066   17.476619  -15.467819 H    1896 MOH     0.4215 ****
11684 HC1     9.160470   -4.801490  -17.048910 H    1897 MOH     0.0372 ****
11685 C1      9.127562   -3.716366  -17.147905 C    1897 MOH     0.1166 ****
11686 HC2     9.572699   -3.247289  -16.270386 H    1897 MOH     0.0372 ****
11687 HC3     8.090063   -3.390584  -17.222858 H    1897 MOH     0.0372 ****
11688 O1      9.813454   -3.339145  -18.313217 O    1897 MOH    -0.6497 ****
11689 HO1     9.915067   -2.385885  -18.272912 H    1897 MOH     0.4215 ****
11690 HC1    17.593826    4.015448  -15.865920 H    1898 MOH     0.0372 ****
11691 C1     16.687963    4.340006  -16.377159 C    1898 MOH     0.1166 ****
11692 HC2    15.802308    3.947271  -15.877941 H    1898 MOH     0.0372 ****
11693 HC3    16.695469    3.991770  -17.410242 H    1898 MOH     0.0372 ****
11694 O1     16.595010    5.732132  -16.363016 O    1898 MOH    -0.6497 ****
11695 HO1    16.865210    6.017498  -15.486911 H    1898 MOH     0.4215 ****
11696 HC1    13.908022   14.778506   -9.777731 H    1899 MOH     0.0372 ****
11697 C1     13.568540   14.032637  -10.496859 C    1899 MOH     0.1166 ****
11698 HC2    13.062204   13.195320  -10.015319 H    1899 MOH     0.0372 ****
11699 HC3    14.455350   13.635819  -10.991833 H    1899 MOH     0.0372 ****
11700 O1     12.727340   14.653174  -11.451453 O    1899 MOH    -0.6497 ****
11701 HO1    13.256771   15.338215  -11.867232 H    1899 MOH     0.4215 ****
11702 HC1     4.614414    7.542305  -18.758694 H    1900 MOH     0.0372 ****
11703 C1      3.983948    7.228771  -17.927137 C    1900 MOH     0.1166 ****
11704 HC2     3.007649    6.916053  -18.297661 H    1900 MOH     0.0372 ****
11705 HC3     3.813630    8.055882  -17.237001 H    1900 MOH     0.0372 ****
11706 O1      4.586124    6.174674  -17.231344 O    1900 MOH    -0.6497 ****
11707 HO1     3.935451    5.820314  -16.621818 H    1900 MOH     0.4215 ****
11708 HC1     7.276577   12.274720  -15.614898 H    1901 MOH     0.0372 ****
11709 C1      7.933024   12.550287  -14.789704 C    1901 MOH     0.1166 ****
11710 HC2     7.386273   12.514361  -13.846424 H    1901 MOH     0.0372 ****
11711 HC3     8.279434   13.572949  -14.940318 H    1901 MOH     0.0372 ****
11712 O1      9.051929   11.678269  -14.724650 O    1901 MOH    -0.6497 ****
11713 HO1     9.656992   12.004867  -14.054313 H    1901 MOH     0.4215 ****
11714 HC1     3.732801   22.383764  -15.566814 H    1902 MOH     0.0372 ****
11715 C1      2.825206   22.763435  -16.036333 C    1902 MOH     0.1166 ****
11716 HC2     2.955687   22.743430  -17.118914 H    1902 MOH     0.0372 ****
11717 HC3     2.682023   23.794262  -15.714600 H    1902 MOH     0.0372 ****
11718 O1      1.684939   21.970208  -15.662274 O    1902 MOH    -0.6497 ****
11719 HO1     0.911867   22.475211  -15.924611 H    1902 MOH     0.4215 ****
11720 HC1    -3.385351    2.206909  -15.561865 H    1903 MOH     0.0372 ****
11721 C1     -2.741605    2.991153  -15.958552 C    1903 MOH     0.1166 ****
11722 HC2    -2.707542    3.792545  -15.221039 H    1903 MOH     0.0372 ****
11723 HC3    -3.140554    3.431245  -16.873548 H    1903 MOH     0.0372 ****
11724 O1     -1.429866    2.526567  -16.189068 O    1903 MOH    -0.6497 ****
11725 HO1    -0.987615    3.313670  -16.514337 H    1903 MOH     0.4215 ****
11726 HC1     5.890358   13.913837   -9.055068 H    1904 MOH     0.0372 ****
11727 C1      6.472328   14.156336   -9.944608 C    1904 MOH     0.1166 ****
11728 HC2     6.435954   13.334532  -10.659493 H    1904 MOH     0.0372 ****
11729 HC3     7.499434   14.299631   -9.607318 H    1904 MOH     0.0372 ****
11730 O1      6.006406   15.400677  -10.476353 O    1904 MOH    -0.6497 ****
11731 HO1     6.422098   16.077961   -9.938244 H    1904 MOH     0.4215 ****
11732 HC1     3.384658    9.347579  -11.383571 H    1905 MOH     0.0372 ****
11733 C1      3.547471    9.123451  -10.329274 C    1905 MOH     0.1166 ****
11734 HC2     4.115006    8.196727  -10.237351 H    1905 MOH     0.0372 ****
11735 HC3     2.563666    9.005876   -9.875312 H    1905 MOH     0.0372 ****
11736 O1      4.240291   10.200002   -9.737426 O    1905 MOH    -0.6497 ****
11737 HO1     5.078604   10.290633  -10.195631 H    1905 MOH     0.4215 ****
11738 HC1     3.106953    9.242660  -20.719502 H    1906 MOH     0.0372 ****
11739 C1      2.973585    8.219998  -21.072348 C    1906 MOH     0.1166 ****
11740 HC2     1.974769    8.142430  -21.500855 H    1906 MOH     0.0372 ****
11741 HC3     3.046909    7.503114  -20.254932 H    1906 MOH     0.0372 ****
11742 O1      3.893881    7.942797  -22.084218 O    1906 MOH    -0.6497 ****
11743 HO1     4.009929    6.994844  -22.176141 H    1906 MOH     0.4215 ****
11744 HC1     5.293956   -0.031925  -21.761777 H    1907 MOH     0.0372 ****
11745 C1      4.557257    0.313861  -21.036992 C    1907 MOH     0.1166 ****
11746 HC2     4.286480   -0.494062  -20.356049 H    1907 MOH     0.0372 ****
11747 HC3     3.648507    0.613515  -21.557423 H    1907 MOH     0.0372 ****
11748 O1      4.997198    1.395311  -20.242911 O    1907 MOH    -0.6497 ****
11749 HO1     5.944630    1.326725  -20.107147 H    1907 MOH     0.4215 ****
11750 HC1     6.242542   16.523360  -21.409638 H    1908 MOH     0.0372 ****
11751 C1      5.394992   15.858731  -21.239932 C    1908 MOH     0.1166 ****
11752 HC2     4.529544   16.502539  -21.083662 H    1908 MOH     0.0372 ****
11753 HC3     5.627664   15.256973  -20.361705 H    1908 MOH     0.0372 ****
11754 O1      5.261624   15.156952  -22.455449 O    1908 MOH    -0.6497 ****
11755 HO1     6.107442   14.751154  -22.660510 H    1908 MOH     0.4215 ****
11756 HC1     4.131172   -2.282598  -15.999564 H    1909 MOH     0.0372 ****
11757 C1      5.166361   -1.978453  -16.155834 C    1909 MOH     0.1166 ****
11758 HC2     5.755259   -2.881090  -16.323419 H    1909 MOH     0.0372 ****
11759 HC3     5.539330   -1.421602  -15.297407 H    1909 MOH     0.0372 ****
11760 O1      5.164052   -1.246872  -17.332460 O    1909 MOH    -0.6497 ****
11761 HO1     5.801447   -0.537745  -17.222858 H    1909 MOH     0.4215 ****
11762 HC1    17.193722    2.909504  -11.428825 H    1910 MOH     0.0372 ****
11763 C1     17.577660    3.506363  -12.256140 C    1910 MOH     0.1166 ****
11764 HC2    18.265284    2.889091  -12.834554 H    1910 MOH     0.0372 ****
11765 HC3    18.078800    4.368175  -11.814199 H    1910 MOH     0.0372 ****
11766 O1     16.512449    3.946046  -13.043150 O    1910 MOH    -0.6497 ****
11767 HO1    15.983019    3.189970  -13.304780 H    1910 MOH     0.4215 ****
11768 HC1     7.659937   11.905663   -6.828389 H    1911 MOH     0.0372 ****
11769 C1      7.723446   10.982614   -7.404681 C    1911 MOH     0.1166 ****
11770 HC2     8.755170   10.778490   -7.690352 H    1911 MOH     0.0372 ****
11771 HC3     7.106258   11.094474   -8.295635 H    1911 MOH     0.0372 ****
11772 O1      7.205562    9.929333   -6.639591 O    1911 MOH    -0.6497 ****
11773 HO1     7.455555    9.104672   -7.063855 H    1911 MOH     0.4215 ****
11774 HC1    -4.391095   11.213274  -15.310842 H    1912 MOH     0.0372 ****
11775 C1     -4.557372   12.283701  -15.192048 C    1912 MOH     0.1166 ****
11776 HC2    -4.204034   12.604584  -14.211998 H    1912 MOH     0.0372 ****
11777 HC3    -5.624315   12.496807  -15.264173 H    1912 MOH     0.0372 ****
11778 O1     -3.870325   12.998136  -16.201796 O    1912 MOH    -0.6497 ****
11779 HO1    -3.960969   12.468229  -16.996584 H    1912 MOH     0.4215 ****
11780 HC1     2.272104   17.529283  -18.159775 H    1913 MOH     0.0372 ****
11781 C1      3.143326   16.874045  -18.178867 C    1913 MOH     0.1166 ****
11782 HC2     3.142749   16.302497  -19.106591 H    1913 MOH     0.0372 ****
11783 HC3     3.115613   16.164918  -17.350845 H    1913 MOH     0.0372 ****
11784 O1      4.321698   17.658698  -18.105328 O    1913 MOH    -0.6497 ****
11785 HO1     4.292253   18.169417  -17.292862 H    1913 MOH     0.4215 ****
11786 HC1    17.085758    8.366150  -12.693132 H    1914 MOH     0.0372 ****
11787 C1     17.726039    7.490866  -12.584238 C    1914 MOH     0.1166 ****
11788 HC2    17.575928    7.089966  -11.581560 H    1914 MOH     0.0372 ****
11789 HC3    18.764692    7.803584  -12.690304 H    1914 MOH     0.0372 ****
11790 O1     17.346720    6.549037  -13.587622 O    1914 MOH    -0.6497 ****
11791 HO1    17.275706    5.675794  -13.195178 H    1914 MOH     0.4215 ****
11792 HC1    -1.913108   10.764201  -15.634697 H    1915 MOH     0.0372 ****
11793 C1     -1.645795    9.759502  -15.305892 C    1915 MOH     0.1166 ****
11794 HC2    -0.701249    9.470054  -15.766219 H    1915 MOH     0.0372 ****
11795 HC3    -2.408474    9.045884  -15.615605 H    1915 MOH     0.0372 ****
11796 O1     -1.478363    9.767259  -13.876829 O    1915 MOH    -0.6497 ****
11797 HO1    -2.306861    9.955053  -13.429938 H    1915 MOH     0.4215 ****
11798 HC1    15.221494   10.579673   -8.272301 H    1916 MOH     0.0372 ****
11799 C1     16.080013   10.941381   -8.837986 C    1916 MOH     0.1166 ****
11800 HC2    15.731871   11.460673   -9.730355 H    1916 MOH     0.0372 ****
11801 HC3    16.709325   10.100797   -9.131435 H    1916 MOH     0.0372 ****
11802 O1     16.829414   11.830954   -8.042491 O    1916 MOH    -0.6497 ****
11803 HO1    16.996846   11.412499   -7.194670 H    1916 MOH     0.4215 ****
11804 HC1    16.020546   11.900764  -18.204323 H    1917 MOH     0.0372 ****
11805 C1     15.573677   12.314728  -19.108005 C    1917 MOH     0.1166 ****
11806 HC2    14.545994   12.633570  -18.936178 H    1917 MOH     0.0372 ****
11807 HC3    15.604277   11.542322  -19.877337 H    1917 MOH     0.0372 ****
11808 O1     16.384277   13.379031  -19.496207 O    1917 MOH    -0.6497 ****
11809 HO1    16.566142   13.925267  -18.728289 H    1917 MOH     0.4215 ****
11810 HC1     9.246496    9.648458  -23.610154 H    1918 MOH     0.0372 ****
11811 C1      8.322158   10.163668  -23.871784 C    1918 MOH     0.1166 ****
11812 HC2     7.609130   10.116719  -23.048004 H    1918 MOH     0.0372 ****
11813 HC3     7.886259    9.717452  -24.764859 H    1918 MOH     0.0372 ****
11814 O1      8.560026   11.512928  -24.151091 O    1918 MOH    -0.6497 ****
11815 HO1     9.064630   11.543139  -24.967092 H    1918 MOH     0.4215 ****
11816 HC1     0.968447   16.841793  -13.557924 H    1919 MOH     0.0372 ****
11817 C1      0.597789   16.444976  -12.613229 C    1919 MOH     0.1166 ****
11818 HC2     1.452267   16.322093  -11.947842 H    1919 MOH     0.0372 ****
11819 HC3     0.126093   15.469262  -12.729195 H    1919 MOH     0.0372 ****
11820 O1     -0.257267   17.380273  -12.051080 O    1919 MOH    -0.6497 ****
11821 HO1    -0.072515   17.381906  -11.109213 H    1919 MOH     0.4215 ****
11822 HC1    -0.493981   -0.571221  -23.070632 H    1920 MOH     0.0372 ****
11823 C1      0.019861   -0.262177  -22.160585 C    1920 MOH     0.1166 ****
11824 HC2     1.102970   -0.288305  -22.276551 H    1920 MOH     0.0372 ****
11825 HC3    -0.283248   -0.901494  -21.330442 H    1920 MOH     0.0372 ****
11826 O1     -0.419502    0.995228  -21.877742 O    1920 MOH    -0.6497 ****
11827 HO1    -0.751479    1.357344  -22.702936 H    1920 MOH     0.4215 ****
11828 HC1     0.256575   12.166942   -7.819753 H    1921 MOH     0.0372 ****
11829 C1      0.190179   11.906480   -6.763335 C    1921 MOH     0.1166 ****
11830 HC2     0.298144   10.828296   -6.639591 H    1921 MOH     0.0372 ****
11831 HC3    -0.793626   12.221239   -6.414731 H    1921 MOH     0.0372 ****
11832 O1      1.173984   12.625405   -6.039965 O    1921 MOH    -0.6497 ****
11833 HO1     1.996708   12.516403   -6.522919 H    1921 MOH     0.4215 ****
11834 HC1     0.966138   18.255557  -16.633132 H    1922 MOH     0.0372 ****
11835 C1      1.532519   18.560519  -15.752784 C    1922 MOH     0.1166 ****
11836 HC2     1.918189   17.666863  -15.261344 H    1922 MOH     0.0372 ****
11837 HC3     0.878381   19.084301  -15.056283 H    1922 MOH     0.0372 ****
11838 O1      2.627175   19.374974  -16.157956 O    1922 MOH    -0.6497 ****
11839 HO1     2.276146   20.250258  -16.334732 H    1922 MOH     0.4215 ****
11840 HC1    -7.117343    8.850741  -17.236294 H    1923 MOH     0.0372 ****
11841 C1     -6.558468    9.483118  -16.546864 C    1923 MOH     0.1166 ****
11842 HC2    -6.513435   10.483734  -16.977493 H    1923 MOH     0.0372 ****
11843 HC3    -5.545218    9.088750  -16.466254 H    1923 MOH     0.0372 ****
11844 O1     -7.223575    9.495365  -15.258516 O    1923 MOH    -0.6497 ****
11845 HO1    -6.756499    8.877277  -14.692831 H    1923 MOH     0.4215 ****
11846 HC1     1.357582    2.637610  -19.337108 H    1924 MOH     0.0372 ****
11847 C1      0.475390    3.220997  -19.076185 C    1924 MOH     0.1166 ****
11848 HC2     0.779654    4.219573  -18.765058 H    1924 MOH     0.0372 ****
11849 HC3    -0.059813    2.731099  -18.263013 H    1924 MOH     0.0372 ****
11850 O1     -0.345602    3.276111  -20.243619 O    1924 MOH    -0.6497 ****
11851 HO1    -0.436246    2.387354  -20.596465 H    1924 MOH     0.4215 ****
11852 HC1     8.894312   -6.354875  -13.886021 H    1925 MOH     0.0372 ****
11853 C1      9.732047   -6.126664  -14.545752 C    1925 MOH     0.1166 ****
11854 HC2    10.089427   -5.125231  -14.310285 H    1925 MOH     0.0372 ****
11855 HC3     9.381596   -6.171571  -15.576714 H    1925 MOH     0.0372 ****
11856 O1     10.812847   -7.068493  -14.341398 O    1925 MOH    -0.6497 ****
11857 HO1    11.645963   -6.680249  -14.619291 H    1925 MOH     0.4215 ****
11858 HC1     3.087900    4.500447  -14.270688 H    1926 MOH     0.0372 ****
11859 C1      2.776131    5.543930  -14.306043 C    1926 MOH     0.1166 ****
11860 HC2     3.582112    6.201210  -13.977945 H    1926 MOH     0.0372 ****
11861 HC3     1.933200    5.667221  -13.627220 H    1926 MOH     0.0372 ****
11862 O1      2.322911    5.890125  -15.600048 O    1926 MOH    -0.6497 ****
11863 HO1     2.111601    6.825830  -15.570350 H    1926 MOH     0.4215 ****
11864 HC1     9.784009   12.513953   -6.773234 H    1927 MOH     0.0372 ****
11865 C1     10.709501   12.813607   -6.279674 C    1927 MOH     0.1166 ****
11866 HC2    11.153483   11.959552   -5.767729 H    1927 MOH     0.0372 ****
11867 HC3    10.463550   13.565601   -5.530141 H    1927 MOH     0.0372 ****
11868 O1     11.591692   13.312895   -7.305686 O    1927 MOH    -0.6497 ****
11869 HO1    11.401167   14.251050   -7.380639 H    1927 MOH     0.4215 ****
11870 HC1    -1.186801    3.671295  -13.453979 H    1928 MOH     0.0372 ****
11871 C1     -0.415461    3.378173  -12.741216 C    1928 MOH     0.1166 ****
11872 HC2     0.482319    3.121793  -13.304073 H    1928 MOH     0.0372 ****
11873 HC3    -0.745705    2.489825  -12.202400 H    1928 MOH     0.0372 ****
11874 O1     -0.155076    4.455540  -11.832583 O    1928 MOH    -0.6497 ****
11875 HO1    -0.821338    4.430637  -11.141740 H    1928 MOH     0.4215 ****
11876 HC1     8.200914   16.382922  -11.425290 H    1929 MOH     0.0372 ****
11877 C1      9.146614   16.725851  -11.005269 C    1929 MOH     0.1166 ****
11878 HC2     9.032876   17.700339  -10.529386 H    1929 MOH     0.0372 ****
11879 HC3     9.876385   16.839344  -11.807128 H    1929 MOH     0.0372 ****
11880 O1      9.588287   15.803618  -10.032997 O    1929 MOH    -0.6497 ****
11881 HO1    10.419671   15.415374  -10.315132 H    1929 MOH     0.4215 ****
11882 HC1     8.118931    8.317161  -16.354531 H    1930 MOH     0.0372 ****
11883 C1      8.900663    8.990362  -16.705963 C    1930 MOH     0.1166 ****
11884 HC2     9.460115    8.555578  -17.533985 H    1930 MOH     0.0372 ****
11885 HC3     9.585978    9.195303  -15.884305 H    1930 MOH     0.0372 ****
11886 O1      8.326777   10.189796  -17.151441 O    1930 MOH    -0.6497 ****
11887 HO1     8.521921   10.833195  -16.465547 H    1930 MOH     0.4215 ****
11888 HC1     7.517216   20.517089  -11.991683 H    1931 MOH     0.0372 ****
11889 C1      6.716431   20.123130  -11.365893 C    1931 MOH     0.1166 ****
11890 HC2     6.150628   19.392774  -11.945014 H    1931 MOH     0.0372 ****
11891 HC3     6.043818   20.900026  -11.004561 H    1931 MOH     0.0372 ****
11892 O1      7.213530   19.382159  -10.321496 O    1931 MOH    -0.6497 ****
11893 HO1     7.757971   19.978202   -9.802480 H    1931 MOH     0.4215 ****
11894 HC1    19.626561   21.756123   -7.485291 H    1932 MOH     0.0372 ****
11895 C1     19.687760   22.535877   -6.727272 C    1932 MOH     0.1166 ****
11896 HC2    20.048026   22.090070   -5.799548 H    1932 MOH     0.0372 ****
11897 HC3    18.694717   22.961272   -6.581608 H    1932 MOH     0.0372 ****
11898 O1     20.558981   23.558539   -7.155072 O    1932 MOH    -0.6497 ****
11899 HO1    21.445791   23.198464   -7.221540 H    1932 MOH     0.4215 ****
11900 HC1    19.247819   15.651586  -20.898399 H    1933 MOH     0.0372 ****
11901 C1     19.060757   14.665667  -20.473428 C    1933 MOH     0.1166 ****
11902 HC2    18.668737   14.760380  -19.460851 H    1933 MOH     0.0372 ****
11903 HC3    20.018004   14.149232  -20.404839 H    1933 MOH     0.0372 ****
11904 O1     18.219558   13.861826  -21.322663 O    1933 MOH    -0.6497 ****
11905 HO1    17.503644   13.515631  -20.785262 H    1933 MOH     0.4215 ****
11906 HC1    21.878227   16.123521  -14.261495 H    1934 MOH     0.0372 ****
11907 C1     21.029522   16.558306  -13.733286 C    1934 MOH     0.1166 ****
11908 HC2    20.893267   17.585458  -14.071283 H    1934 MOH     0.0372 ****
11909 HC3    21.194067   16.546058  -12.655656 H    1934 MOH     0.0372 ****
11910 O1     19.863852   15.860201  -14.067041 O    1934 MOH    -0.6497 ****
11911 HO1    19.890987   15.059626  -13.537418 H    1934 MOH     0.4215 ****
11912 HC1    14.068410   29.606737  -11.413976 H    1935 MOH     0.0372 ****
11913 C1     14.672318   30.158281  -10.693434 C    1935 MOH     0.1166 ****
11914 HC2    15.484072   29.523047  -10.339881 H    1935 MOH     0.0372 ****
11915 HC3    14.023954   30.444055   -9.864705 H    1935 MOH     0.0372 ****
11916 O1     15.176922   31.282188  -11.348922 O    1935 MOH    -0.6497 ****
11917 HO1    15.989831   31.543876  -10.909809 H    1935 MOH     0.4215 ****
11918 HC1    12.130245   24.285221   -7.029207 H    1936 MOH     0.0372 ****
11919 C1     11.110067   23.992507   -6.781013 C    1936 MOH     0.1166 ****
11920 HC2    10.948986   24.050070   -5.705503 H    1936 MOH     0.0372 ****
11921 HC3    10.901643   22.970253   -7.097796 H    1936 MOH     0.0372 ****
11922 O1     10.223834   24.884938   -7.382053 O    1936 MOH    -0.6497 ****
11923 HO1    10.675322   25.261343   -8.141486 H    1936 MOH     0.4215 ****
11924 HC1     6.729133   27.071924  -10.824956 H    1937 MOH     0.0372 ****
11925 C1      7.769518   27.099276  -11.150933 C    1937 MOH     0.1166 ****
11926 HC2     8.353797   26.459551  -10.488374 H    1937 MOH     0.0372 ****
11927 HC3     8.110732   28.132961  -11.097193 H    1937 MOH     0.0372 ****
11928 O1      7.836491   26.617135  -12.473929 O    1937 MOH    -0.6497 ****
11929 HO1     7.241820   25.864325  -12.517770 H    1937 MOH     0.4215 ****
11930 HC1     9.609533   22.389724  -14.984866 H    1938 MOH     0.0372 ****
11931 C1     10.524056   22.695910  -15.492568 C    1938 MOH     0.1166 ****
11932 HC2    11.119304   23.350332  -14.855465 H    1938 MOH     0.0372 ****
11933 HC3    10.248660   23.242147  -16.394836 H    1938 MOH     0.0372 ****
11934 O1     11.226114   21.556489  -15.890669 O    1938 MOH    -0.6497 ****
11935 HO1    12.160844   21.755306  -15.800867 H    1938 MOH     0.4215 ****
11936 HC1     6.555351   22.052103  -19.840568 H    1939 MOH     0.0372 ****
11937 C1      6.598075   22.293786  -18.778493 C    1939 MOH     0.1166 ****
11938 HC2     7.634996   22.231732  -18.447567 H    1939 MOH     0.0372 ****
11939 HC3     6.000517   21.592007  -18.196545 H    1939 MOH     0.0372 ****
11940 O1      6.164484   23.587525  -18.509086 O    1939 MOH    -0.6497 ****
11941 HO1     5.394877   23.778993  -19.050022 H    1939 MOH     0.4215 ****
11942 HC1     3.952078   25.989658  -12.125326 H    1940 MOH     0.0372 ****
11943 C1      3.517333   25.104167  -11.662171 C    1940 MOH     0.1166 ****
11944 HC2     3.105105   24.429333  -12.412411 H    1940 MOH     0.0372 ****
11945 HC3     2.695187   25.390349  -11.005269 H    1940 MOH     0.0372 ****
11946 O1      4.422619   24.401572  -10.866676 O    1940 MOH    -0.6497 ****
11947 HO1     3.896075   23.683871  -10.506051 H    1940 MOH     0.4215 ****
11948 HC1    17.615650   20.893903   -5.406397 H    1941 MOH     0.0372 ****
11949 C1     17.915294   19.846746   -5.421246 C    1941 MOH     0.1166 ****
11950 HC2    18.549225   19.658135   -6.288159 H    1941 MOH     0.0372 ****
11951 HC3    17.047537   19.192732   -5.500442 H    1941 MOH     0.0372 ****
11952 O1     18.620239   19.535660   -4.227650 O    1941 MOH    -0.6497 ****
11953 HO1    19.054406   18.687321   -4.346444 H    1941 MOH     0.4215 ****
11954 HC1    24.421455   15.546258  -17.814000 H    1942 MOH     0.0372 ****
11955 C1     23.741336   14.977568  -17.179725 C    1942 MOH     0.1166 ****
11956 HC2    24.095829   15.014719  -16.149470 H    1942 MOH     0.0372 ****
11957 HC3    23.686488   13.941026  -17.511358 H    1942 MOH     0.0372 ****
11958 O1     22.508693   15.600555  -17.261749 O    1942 MOH    -0.6497 ****
11959 HO1    22.610884   16.493394  -16.925873 H    1942 MOH     0.4215 ****
11960 HC1    18.289417   22.009645  -12.830311 H    1943 MOH     0.0372 ****
11961 C1     18.149121   21.855327  -13.899457 C    1943 MOH     0.1166 ****
11962 HC2    17.952822   22.809812  -14.388774 H    1943 MOH     0.0372 ****
11963 HC3    17.314850   21.176410  -14.075526 H    1943 MOH     0.0372 ****
11964 O1     19.324606   21.300926  -14.451000 O    1943 MOH    -0.6497 ****
11965 HO1    19.971239   21.200089  -13.748843 H    1943 MOH     0.4215 ****
11966 HC1    24.751122   15.920622  -12.584945 H    1944 MOH     0.0372 ****
11967 C1     24.584845   16.007579  -11.510850 C    1944 MOH     0.1166 ****
11968 HC2    24.657014   17.063717  -11.251342 H    1944 MOH     0.0372 ****
11969 HC3    25.371773   15.453586  -10.998197 H    1944 MOH     0.0372 ****
11970 O1     23.259249   15.488695  -11.276797 O    1944 MOH    -0.6497 ****
11971 HO1    22.948057   15.837339  -10.438169 H    1944 MOH     0.4215 ****
11972 HC1     8.124589   24.490570   -9.385994 H    1945 MOH     0.0372 ****
11973 C1      7.733145   23.721430  -10.050674 C    1945 MOH     0.1166 ****
11974 HC2     8.232553   23.755315  -11.018704 H    1945 MOH     0.0372 ****
11975 HC3     6.661583   23.883913  -10.175125 H    1945 MOH     0.0372 ****
11976 O1      7.874019   22.454636   -9.465897 O    1945 MOH    -0.6497 ****
11977 HO1     7.427727   22.454227   -8.616662 H    1945 MOH     0.4215 ****
11978 HC1    24.344667   22.058635  -13.766520 H    1946 MOH     0.0372 ****
11979 C1     24.327924   21.051486  -14.184421 C    1946 MOH     0.1166 ****
11980 HC2    24.829641   20.392982  -13.476607 H    1946 MOH     0.0372 ****
11981 HC3    24.879293   21.022909  -15.124873 H    1946 MOH     0.0372 ****
11982 O1     22.985007   20.615885  -14.333620 O    1946 MOH    -0.6497 ****
11983 HO1    22.493105   20.876756  -13.550853 H    1946 MOH     0.4215 ****
11984 HC1    18.479366   25.849628  -14.634848 H    1947 MOH     0.0372 ****
11985 C1     17.415886   26.050487  -14.766369 C    1947 MOH     0.1166 ****
11986 HC2    16.833917   25.129478  -14.739499 H    1947 MOH     0.0372 ****
11987 HC3    17.250764   26.521197  -15.735813 H    1947 MOH     0.0372 ****
11988 O1     16.965553   26.940876  -13.787027 O    1947 MOH    -0.6497 ****
11989 HO1    17.075827   27.835348  -14.117245 H    1947 MOH     0.4215 ****
11990 HC1    17.959750   17.521363  -12.227856 H    1948 MOH     0.0372 ****
11991 C1     17.773844   18.107200  -13.128003 C    1948 MOH     0.1166 ****
11992 HC2    17.791741   17.483396  -14.021786 H    1948 MOH     0.0372 ****
11993 HC3    18.521512   18.892669  -13.236897 H    1948 MOH     0.0372 ****
11994 O1     16.531386   18.695485  -12.998603 O    1948 MOH    -0.6497 ****
11995 HO1    16.232896   18.806121  -13.904406 H    1948 MOH     0.4215 ****
11996 HC1    19.144473   21.096394  -10.808693 H    1949 MOH     0.0372 ****
11997 C1     19.898493   20.342767  -11.036381 C    1949 MOH     0.1166 ****
11998 HC2    19.412364   19.453194  -11.435896 H    1949 MOH     0.0372 ****
11999 HC3    20.387508   20.053319  -10.106536 H    1949 MOH     0.0372 ****
12000 O1     20.832645   20.884921  -11.981076 O    1949 MOH    -0.6497 ****
12001 HO1    21.049152   21.782659  -11.721568 H    1949 MOH     0.4215 ****
12002 HC1    15.081082   14.466850  -13.543075 H    1950 MOH     0.0372 ****
12003 C1     14.674050   15.467466  -13.688032 C    1950 MOH     0.1166 ****
12004 HC2    13.628469   15.421742  -13.993502 H    1950 MOH     0.0372 ****
12005 HC3    15.230616   15.925113  -14.504740 H    1950 MOH     0.0372 ****
12006 O1     14.828780   16.291311  -12.531205 O    1950 MOH    -0.6497 ****
12007 HO1    15.111682   17.171495  -12.791420 H    1950 MOH     0.4215 ****
12008 HC1    14.486989   18.872257  -11.320638 H    1951 MOH     0.0372 ****
12009 C1     14.575323   19.858177  -10.864554 C    1951 MOH     0.1166 ****
12010 HC2    13.974301   19.890020   -9.956629 H    1951 MOH     0.0372 ****
12011 HC3    14.223139   20.593432  -11.587925 H    1951 MOH     0.0372 ****
12012 O1     15.915353   20.061892  -10.556963 O    1951 MOH    -0.6497 ****
12013 HO1    16.400327   19.595265  -11.240735 H    1951 MOH     0.4215 ****
12014 HC1    16.450557   14.034923  -10.506758 H    1952 MOH     0.0372 ****
12015 C1     17.526738   14.043088  -10.676464 C    1952 MOH     0.1166 ****
12016 HC2    17.947049   14.903267  -10.156740 H    1952 MOH     0.0372 ****
12017 HC3    17.730542   14.103509  -11.745609 H    1952 MOH     0.0372 ****
12018 O1     18.120254   12.898360  -10.175832 O    1952 MOH    -0.6497 ****
12019 HO1    17.658374   12.637081   -9.376802 H    1952 MOH     0.4215 ****
12020 HC1    12.265922   25.688370  -13.637120 H    1953 MOH     0.0372 ****
12021 C1     13.297647   25.404638  -13.842888 C    1953 MOH     0.1166 ****
12022 HC2    13.568424   24.578752  -13.185986 H    1953 MOH     0.0372 ****
12023 HC3    13.946011   26.255427  -13.632170 H    1953 MOH     0.0372 ****
12024 O1     13.435634   25.085388  -15.204776 O    1953 MOH    -0.6497 ****
12025 HO1    13.138876   25.878206  -15.657324 H    1953 MOH     0.4215 ****
12026 HC1    23.891447   21.126196   -5.994003 H    1954 MOH     0.0372 ****
12027 C1     23.966503   22.168045   -6.303715 C    1954 MOH     0.1166 ****
12028 HC2    25.005156   22.392582   -6.546960 H    1954 MOH     0.0372 ****
12029 HC3    23.604504   22.769395   -5.468622 H    1954 MOH     0.0372 ****
12030 O1     23.078538   22.325629   -7.379932 O    1954 MOH    -0.6497 ****
12031 HO1    23.445733   21.805113   -8.097645 H    1954 MOH     0.4215 ****
12032 HC1    11.556359   29.443030  -12.439988 H    1955 MOH     0.0372 ****
12033 C1     11.316758   28.810245  -11.585803 C    1955 MOH     0.1166 ****
12034 HC2    10.271177   28.934761  -11.305082 H    1955 MOH     0.0372 ****
12035 HC3    11.948957   29.117656  -10.752124 H    1955 MOH     0.0372 ****
12036 O1     11.618712   27.460168  -11.901880 O    1955 MOH    -0.6497 ****
12037 HO1    11.156255   27.187050  -12.697375 H    1955 MOH     0.4215 ****
12038 HC1    20.791653   17.816527   -9.919152 H    1956 MOH     0.0372 ****
12039 C1     21.042801   17.296010   -8.994964 C    1956 MOH     0.1166 ****
12040 HC2    20.375961   16.442363   -8.874049 H    1956 MOH     0.0372 ****
12041 HC3    20.919825   17.965946   -8.144314 H    1956 MOH     0.0372 ****
12042 O1     22.382831   16.865308   -9.091837 O    1956 MOH    -0.6497 ****
12043 HO1    22.572779   16.309682   -8.333112 H    1956 MOH     0.4215 ****
12044 HC1    12.317884   24.044763  -10.698384 H    1957 MOH     0.0372 ****
12045 C1     11.308098   24.444030  -10.606460 C    1957 MOH     0.1166 ****
12046 HC2    10.695529   23.702651  -10.093101 H    1957 MOH     0.0372 ****
12047 HC3    10.906840   24.635906  -11.602067 H    1957 MOH     0.0372 ****
12048 O1     11.376225   25.632849   -9.844199 O    1957 MOH    -0.6497 ****
12049 HO1    11.710511   26.326054  -10.418370 H    1957 MOH     0.4215 ****
12050 HC1    24.775948   17.388683  -14.974966 H    1958 MOH     0.0372 ****
12051 C1     25.647169   17.892053  -15.394280 C    1958 MOH     0.1166 ****
12052 HC2    25.349257   18.841230  -15.837636 H    1958 MOH     0.0372 ****
12053 HC3    26.085955   17.280497  -16.183411 H    1958 MOH     0.0372 ****
12054 O1     26.615963   18.167212  -14.408573 O    1958 MOH    -0.6497 ****
12055 HO1    27.046089   17.329078  -14.225433 H    1958 MOH     0.4215 ****
12056 HC1     8.061657   31.280964  -12.274525 H    1959 MOH     0.0372 ****
12057 C1      8.924219   31.743917  -12.753944 C    1959 MOH     0.1166 ****
12058 HC2     9.711147   31.858635  -12.007946 H    1959 MOH     0.0372 ****
12059 HC3     8.607253   32.735961  -13.076384 H    1959 MOH     0.0372 ****
12060 O1      9.307002   30.956406  -13.912892 O    1959 MOH    -0.6497 ****
12061 HO1     8.613027   31.002538  -14.574037 H    1959 MOH     0.4215 ****
12062 HC1    14.747951   26.718381   -6.013802 H    1960 MOH     0.0372 ****
12063 C1     15.355901   27.589174   -6.261996 C    1960 MOH     0.1166 ****
12064 HC2    16.405523   27.319731   -6.376548 H    1960 MOH     0.0372 ****
12065 HC3    15.299320   28.311366   -5.446702 H    1960 MOH     0.0372 ****
12066 O1     14.960993   28.151332   -7.471856 O    1960 MOH    -0.6497 ****
12067 HO1    15.242740   27.552840   -8.167649 H    1960 MOH     0.4215 ****
12068 HC1    13.807447   18.974319  -15.812180 H    1961 MOH     0.0372 ****
12069 C1     14.664235   18.716306  -16.435849 C    1961 MOH     0.1166 ****
12070 HC2    14.850142   19.509532  -17.159219 H    1961 MOH     0.0372 ****
12071 HC3    14.418284   17.812444  -16.993049 H    1961 MOH     0.0372 ****
12072 O1     15.827596   18.525654  -15.634697 O    1961 MOH    -0.6497 ****
12073 HO1    16.523880   18.177827  -16.196139 H    1961 MOH     0.4215 ****
12074 HC1    19.862120   18.634248  -16.628889 H    1962 MOH     0.0372 ****
12075 C1     19.363866   17.858576  -17.208716 C    1962 MOH     0.1166 ****
12076 HC2    20.090750   17.113115  -17.531157 H    1962 MOH     0.0372 ****
12077 HC3    18.901409   18.332553  -18.074922 H    1962 MOH     0.0372 ****
12078 O1     18.388722   17.227833  -16.411807 O    1962 MOH    -0.6497 ****
12079 HO1    18.860417   16.858776  -15.662274 H    1962 MOH     0.4215 ****
12080 HC1    23.202668   24.686121   -9.441855 H    1963 MOH     0.0372 ****
12081 C1     22.580285   25.580593   -9.451048 C    1963 MOH     0.1166 ****
12082 HC2    23.024267   26.367696   -8.841522 H    1963 MOH     0.0372 ****
12083 HC3    21.608604   25.302576   -9.041633 H    1963 MOH     0.0372 ****
12084 O1     22.400729   26.033340  -10.772630 O    1963 MOH    -0.6497 ****
12085 HO1    23.258094   26.308908  -11.105678 H    1963 MOH     0.4215 ****
12086 HC1    18.831549   24.865750  -11.601360 H    1964 MOH     0.0372 ****
12087 C1     19.285347   25.745117  -11.144569 C    1964 MOH     0.1166 ****
12088 HC2    20.122505   26.061918  -11.766823 H    1964 MOH     0.0372 ****
12089 HC3    19.589033   25.496085  -10.127749 H    1964 MOH     0.0372 ****
12090 O1     18.335028   26.742876  -11.179924 O    1964 MOH    -0.6497 ****
12091 HO1    18.007093   26.798398  -12.080778 H    1964 MOH     0.4215 ****
12092 HC1    22.453845   20.925338   -9.758639 H    1965 MOH     0.0372 ****
12093 C1     23.276569   20.234582   -9.943901 C    1965 MOH     0.1166 ****
12094 HC2    23.551965   20.355831  -10.991126 H    1965 MOH     0.0372 ****
12095 HC3    22.968264   19.194773   -9.837128 H    1965 MOH     0.0372 ****
12096 O1     24.366606   20.545258   -9.059311 O    1965 MOH    -0.6497 ****
12097 HO1    24.977443   19.804696   -9.046583 H    1965 MOH     0.4215 ****
12098 HC1    27.287999   21.883088  -10.823542 H    1966 MOH     0.0372 ****
12099 C1     26.456614   22.566496  -10.993248 C    1966 MOH     0.1166 ****
12100 HC2    25.534586   22.106400  -10.636159 H    1966 MOH     0.0372 ****
12101 HC3    26.386178   22.754698  -12.064514 H    1966 MOH     0.0372 ****
12102 O1     26.784549   23.787158  -10.341295 O    1966 MOH    -0.6497 ****
12103 HO1    27.397695   23.589974   -9.629239 H    1966 MOH     0.4215 ****
12104 HC1    19.794569   24.112532   -2.340382 H    1967 MOH     0.0372 ****
12105 C1     18.903141   24.739193   -2.372202 C    1967 MOH     0.1166 ****
12106 HC2    18.014599   24.108450   -2.412507 H    1967 MOH     0.0372 ****
12107 HC3    18.912378   25.357281   -3.270227 H    1967 MOH     0.0372 ****
12108 O1     18.913533   25.586717   -1.250730 O    1967 MOH    -0.6497 ****
12109 HO1    19.669284   26.166837   -1.367403 H    1967 MOH     0.4215 ****
12110 HC1    21.451565   25.374428   -3.753888 H    1968 MOH     0.0372 ****
12111 C1     21.676154   26.440364   -3.703684 C    1968 MOH     0.1166 ****
12112 HC2    21.317042   26.988233   -4.574839 H    1968 MOH     0.0372 ****
12113 HC3    22.762150   26.486904   -3.775809 H    1968 MOH     0.0372 ****
12114 O1     21.315310   27.038448   -2.437256 O    1968 MOH    -0.6497 ****
12115 HO1    21.243141   27.987217   -2.563121 H    1968 MOH     0.4215 ****
12116 HC1    20.538197   11.923463  -12.386248 H    1969 MOH     0.0372 ****
12117 C1     21.119588   12.680763  -11.859453 C    1969 MOH     0.1166 ****
12118 HC2    22.173253   12.436631  -11.996632 H    1969 MOH     0.0372 ****
12119 HC3    20.889803   12.691378  -10.794551 H    1969 MOH     0.0372 ****
12120 O1     20.991417   13.941026  -12.411704 O    1969 MOH    -0.6497 ****
12121 HO1    21.789892   14.417452  -12.170580 H    1969 MOH     0.4215 ****
12122 HC1    15.693651   23.280522   -7.304272 H    1970 MOH     0.0372 ****
12123 C1     16.038906   22.437489   -7.901777 C    1970 MOH     0.1166 ****
12124 HC2    16.779069   21.905542   -7.302857 H    1970 MOH     0.0372 ****
12125 HC3    16.480579   22.823284   -8.820309 H    1970 MOH     0.0372 ****
12126 O1     14.986396   21.519747   -8.235531 O    1970 MOH    -0.6497 ****
12127 HO1    15.265257   21.006579   -8.997085 H    1970 MOH     0.4215 ****
12128 HC1    20.758745   11.600947  -17.048910 H    1971 MOH     0.0372 ****
12129 C1     20.725836   12.686071  -17.147905 C    1971 MOH     0.1166 ****
12130 HC2    21.170973   13.155148  -16.270386 H    1971 MOH     0.0372 ****
12131 HC3    19.688337   13.011853  -17.222858 H    1971 MOH     0.0372 ****
12132 O1     21.411728   13.063292  -18.313217 O    1971 MOH    -0.6497 ****
12133 HO1    21.513341   14.016552  -18.272912 H    1971 MOH     0.4215 ****
12134 HC1    21.726384   24.981693  -13.881072 H    1972 MOH     0.0372 ****
12135 C1     22.389759   24.159889  -13.611664 C    1972 MOH     0.1166 ****
12136 HC2    23.405896   24.546092  -13.533882 H    1972 MOH     0.0372 ****
12137 HC3    22.375903   23.377277  -14.370390 H    1972 MOH     0.0372 ****
12138 O1     22.011595   23.732861  -12.324730 O    1972 MOH    -0.6497 ****
12139 HO1    22.065288   24.502001  -11.753387 H    1972 MOH     0.4215 ****
12140 HC1     8.212923   18.609345  -15.561865 H    1973 MOH     0.0372 ****
12141 C1      8.856669   19.393590  -15.958552 C    1973 MOH     0.1166 ****
12142 HC2     8.890732   20.194981  -15.221039 H    1973 MOH     0.0372 ****
12143 HC3     8.457720   19.833682  -16.873548 H    1973 MOH     0.0372 ****
12144 O1     10.168409   18.929003  -16.189068 O    1973 MOH    -0.6497 ****
12145 HO1    10.610659   19.716106  -16.514337 H    1973 MOH     0.4215 ****
12146 HC1    14.982932   25.750016  -11.383571 H    1974 MOH     0.0372 ****
12147 C1     15.145745   25.525888  -10.329274 C    1974 MOH     0.1166 ****
12148 HC2    15.713280   24.599164  -10.237351 H    1974 MOH     0.0372 ****
12149 HC3    14.161940   25.408312   -9.875312 H    1974 MOH     0.0372 ****
12150 O1     15.838565   26.602438   -9.737426 O    1974 MOH    -0.6497 ****
12151 HO1    16.676878   26.693069  -10.195631 H    1974 MOH     0.4215 ****
12152 HC1    12.918328   19.683855   -6.624035 H    1975 MOH     0.0372 ****
12153 C1     12.525152   20.118639   -5.705503 C    1975 MOH     0.1166 ****
12154 HC2    12.340978   21.183351   -5.846925 H    1975 MOH     0.0372 ****
12155 HC3    13.224323   19.974527   -4.881724 H    1975 MOH     0.0372 ****
12156 O1     11.360637   19.457685   -5.376699 O    1975 MOH    -0.6497 ****
12157 HO1    10.936284   19.907166   -4.642015 H    1975 MOH     0.4215 ****
12158 HC1    16.892230   16.370511  -21.761777 H    1976 MOH     0.0372 ****
12159 C1     16.155531   16.716298  -21.036992 C    1976 MOH     0.1166 ****
12160 HC2    15.884754   15.908374  -20.356049 H    1976 MOH     0.0372 ****
12161 HC3    15.246782   17.015952  -21.557423 H    1976 MOH     0.0372 ****
12162 O1     16.595472   17.797747  -20.242911 O    1976 MOH    -0.6497 ****
12163 HO1    17.542904   17.729162  -20.107147 H    1976 MOH     0.4215 ****
12164 HC1    15.729446   14.119839  -15.999564 H    1977 MOH     0.0372 ****
12165 C1     16.764635   14.423984  -16.155834 C    1977 MOH     0.1166 ****
12166 HC2    17.353533   13.521347  -16.323419 H    1977 MOH     0.0372 ****
12167 HC3    17.137604   14.980834  -15.297407 H    1977 MOH     0.0372 ****
12168 O1     16.762326   15.155564  -17.332460 O    1977 MOH    -0.6497 ****
12169 HO1    17.399721   15.864692  -17.222858 H    1977 MOH     0.4215 ****
12170 HC1    28.791996   19.311940  -11.428825 H    1978 MOH     0.0372 ****
12171 C1     29.175934   19.908799  -12.256140 C    1978 MOH     0.1166 ****
12172 HC2    29.863558   19.291528  -12.834554 H    1978 MOH     0.0372 ****
12173 HC3    29.677074   20.770611  -11.814199 H    1978 MOH     0.0372 ****
12174 O1     28.110723   20.348483  -13.043150 O    1978 MOH    -0.6497 ****
12175 HO1    27.581293   19.592407  -13.304780 H    1978 MOH     0.4215 ****
12176 HC1    19.258211   28.308100   -6.828389 H    1979 MOH     0.0372 ****
12177 C1     19.321720   27.385050   -7.404681 C    1979 MOH     0.1166 ****
12178 HC2    20.353445   27.180926   -7.690352 H    1979 MOH     0.0372 ****
12179 HC3    18.704532   27.496910   -8.295635 H    1979 MOH     0.0372 ****
12180 O1     18.803836   26.331770   -6.639591 O    1979 MOH    -0.6497 ****
12181 HO1    19.053829   25.507108   -7.063855 H    1979 MOH     0.4215 ****
12182 HC1     7.207179   27.615711  -15.310842 H    1980 MOH     0.0372 ****
12183 C1      7.040902   28.686138  -15.192048 C    1980 MOH     0.1166 ****
12184 HC2     7.394241   29.007021  -14.211998 H    1980 MOH     0.0372 ****
12185 HC3     5.973959   28.899243  -15.264173 H    1980 MOH     0.0372 ****
12186 O1      7.727949   29.400572  -16.201796 O    1980 MOH    -0.6497 ****
12187 HO1     7.637305   28.870666  -16.996584 H    1980 MOH     0.4215 ****
12188 HC1     9.685166   27.166637  -15.634697 H    1981 MOH     0.0372 ****
12189 C1      9.952480   26.161938  -15.305892 C    1981 MOH     0.1166 ****
12190 HC2    10.897025   25.872490  -15.766219 H    1981 MOH     0.0372 ****
12191 HC3     9.189800   25.448320  -15.615605 H    1981 MOH     0.0372 ****
12192 O1     10.119911   26.169695  -13.876829 O    1981 MOH    -0.6497 ****
12193 HO1     9.291413   26.357489  -13.429938 H    1981 MOH     0.4215 ****
12194 HC1    12.566722   33.244230  -13.557924 H    1982 MOH     0.0372 ****
12195 C1     12.196063   32.847412  -12.613229 C    1982 MOH     0.1166 ****
12196 HC2    13.050541   32.724530  -11.947842 H    1982 MOH     0.0372 ****
12197 HC3    11.724368   31.871699  -12.729195 H    1982 MOH     0.0372 ****
12198 O1     11.341007   33.782709  -12.051080 O    1982 MOH    -0.6497 ****
12199 HO1    11.525759   33.784342  -11.109213 H    1982 MOH     0.4215 ****
12200 HC1    11.104293   15.831215  -23.070632 H    1983 MOH     0.0372 ****
12201 C1     11.618135   16.140259  -22.160585 C    1983 MOH     0.1166 ****
12202 HC2    12.701244   16.114131  -22.276551 H    1983 MOH     0.0372 ****
12203 HC3    11.315026   15.500942  -21.330442 H    1983 MOH     0.0372 ****
12204 O1     11.178772   17.397664  -21.877742 O    1983 MOH    -0.6497 ****
12205 HO1    10.846795   17.759780  -22.702936 H    1983 MOH     0.4215 ****
12206 HC1    11.854849   28.569379   -7.819753 H    1984 MOH     0.0372 ****
12207 C1     11.788453   28.308916   -6.763335 C    1984 MOH     0.1166 ****
12208 HC2    11.896418   27.230732   -6.639591 H    1984 MOH     0.0372 ****
12209 HC3    10.804648   28.623676   -6.414731 H    1984 MOH     0.0372 ****
12210 O1     12.772258   29.027841   -6.039965 O    1984 MOH    -0.6497 ****
12211 HO1    13.594982   28.918839   -6.522919 H    1984 MOH     0.4215 ****
12212 HC1    16.181511   23.932495   -3.603982 H    1985 MOH     0.0372 ****
12213 C1     15.771015   22.975969   -3.280834 C    1985 MOH     0.1166 ****
12214 HC2    16.549861   22.213361   -3.259621 H    1985 MOH     0.0372 ****
12215 HC3    14.985819   22.697135   -3.982991 H    1985 MOH     0.0372 ****
12216 O1     15.175190   23.120489   -2.025012 O    1985 MOH    -0.6497 ****
12217 HO1    15.795841   23.569562   -1.446599 H    1985 MOH     0.4215 ****
12218 HC1     4.480931   25.253178  -17.236294 H    1986 MOH     0.0372 ****
12219 C1      5.039806   25.885554  -16.546864 C    1986 MOH     0.1166 ****
12220 HC2     5.084839   26.886171  -16.977493 H    1986 MOH     0.0372 ****
12221 HC3     6.053056   25.491186  -16.466254 H    1986 MOH     0.0372 ****
12222 O1      4.374699   25.897802  -15.258516 O    1986 MOH    -0.6497 ****
12223 HO1     4.841775   25.279714  -14.692831 H    1986 MOH     0.4215 ****
12224 HC1    12.955856   19.040047  -19.337108 H    1987 MOH     0.0372 ****
12225 C1     12.073664   19.623434  -19.076185 C    1987 MOH     0.1166 ****
12226 HC2    12.377928   20.622009  -18.765058 H    1987 MOH     0.0372 ****
12227 HC3    11.538461   19.133536  -18.263013 H    1987 MOH     0.0372 ****
12228 O1     11.252672   19.678547  -20.243619 O    1987 MOH    -0.6497 ****
12229 HO1    11.162028   18.789791  -20.596465 H    1987 MOH     0.4215 ****
12230 HC1    20.492586   10.047562  -13.886021 H    1988 MOH     0.0372 ****
12231 C1     21.330321   10.275773  -14.545752 C    1988 MOH     0.1166 ****
12232 HC2    21.687701   11.277206  -14.310285 H    1988 MOH     0.0372 ****
12233 HC3    20.979870   10.230865  -15.576714 H    1988 MOH     0.0372 ****
12234 O1     22.411121    9.333944  -14.341398 O    1988 MOH    -0.6497 ****
12235 HO1    23.244237    9.722188  -14.619291 H    1988 MOH     0.4215 ****
12236 HC1    14.686174   20.902884  -14.270688 H    1989 MOH     0.0372 ****
12237 C1     14.374405   21.946367  -14.306043 C    1989 MOH     0.1166 ****
12238 HC2    15.180386   22.603646  -13.977945 H    1989 MOH     0.0372 ****
12239 HC3    13.531474   22.069658  -13.627220 H    1989 MOH     0.0372 ****
12240 O1     13.921185   22.292561  -15.600048 O    1989 MOH    -0.6497 ****
12241 HO1    13.709875   23.228266  -15.570350 H    1989 MOH     0.4215 ****
12242 HC1    10.411473   20.073732  -13.453979 H    1990 MOH     0.0372 ****
12243 C1     11.182813   19.780609  -12.741216 C    1990 MOH     0.1166 ****
12244 HC2    12.080593   19.524229  -13.304073 H    1990 MOH     0.0372 ****
12245 HC3    10.852569   18.892261  -12.202400 H    1990 MOH     0.0372 ****
12246 O1     11.443198   20.857977  -11.832583 O    1990 MOH    -0.6497 ****
12247 HO1    10.776936   20.833073  -11.141740 H    1990 MOH     0.4215 ****
12248 HC1    10.282146   20.684471   -7.570851 H    1991 MOH     0.0372 ****
12249 C1     10.765389   20.533828   -8.536052 C    1991 MOH     0.1166 ****
12250 HC2    11.220918   19.544234   -8.555851 H    1991 MOH     0.0372 ****
12251 HC3    11.525759   21.302967   -8.674645 H    1991 MOH     0.0372 ****
12252 O1      9.734241   20.583226   -9.522466 O    1991 MOH    -0.6497 ****
12253 HO1     9.221554   21.384209   -9.392358 H    1991 MOH     0.4215 ****
12254 HC1     5.982042   22.112115  -13.904406 H    1992 MOH     0.0372 ****
12255 C1      6.569784   23.027816  -13.842888 C    1992 MOH     0.1166 ****
12256 HC2     7.035706   23.238472  -14.805968 H    1992 MOH     0.0372 ****
12257 HC3     7.358445   22.879214  -13.106083 H    1992 MOH     0.0372 ****
12258 O1      5.788052   24.152540  -13.467414 O    1992 MOH    -0.6497 ****
12259 HO1     5.387948   23.988425  -12.610401 H    1992 MOH     0.4215 ****
12260 HC1     0.420658  -24.090813  -17.608797 H    1993 MOH     0.0372 ****
12261 C1     -0.290638  -24.916700  -17.619404 C    1993 MOH     0.1166 ****
12262 HC2     0.071361  -25.647872  -18.342774 H    1993 MOH     0.0372 ****
12263 HC3    -1.279639  -24.544377  -17.889519 H    1993 MOH     0.0372 ****
12264 O1     -0.354147  -25.490289  -16.334591 O    1993 MOH    -0.6497 ****
12265 HO1    -0.630120  -24.806473  -15.720115 H    1993 MOH     0.4215 ****
12266 HC1     2.997949  -29.223719  -20.429446 H    1994 MOH     0.0372 ****
12267 C1      2.745070  -28.359049  -19.815677 C    1994 MOH     0.1166 ****
12268 HC2     3.552783  -28.175746  -19.107863 H    1994 MOH     0.0372 ****
12269 HC3     1.827083  -28.591751  -19.276862 H    1994 MOH     0.0372 ****
12270 O1      2.552812  -27.250655  -20.671984 O    1994 MOH    -0.6497 ****
12271 HO1     1.867497  -27.521732  -21.287167 H    1994 MOH     0.4215 ****
12272 HC1    -1.744983  -32.034100  -17.958815 H    1995 MOH     0.0372 ****
12273 C1     -1.520394  -30.968164  -17.908610 C    1995 MOH     0.1166 ****
12274 HC2    -1.879506  -30.420295  -18.779766 H    1995 MOH     0.0372 ****
12275 HC3    -0.434398  -30.921624  -17.980735 H    1995 MOH     0.0372 ****
12276 O1     -1.881238  -30.370080  -16.642182 O    1995 MOH    -0.6497 ****
12277 HO1    -1.953407  -29.421311  -16.768047 H    1995 MOH     0.4215 ****
12278 HC1    -0.545249  -24.016512  -22.052256 H    1996 MOH     0.0372 ****
12279 C1     -0.857019  -24.435375  -21.094834 C    1996 MOH     0.1166 ****
12280 HC2    -1.384139  -23.689097  -20.502278 H    1996 MOH     0.0372 ****
12281 HC3     0.035565  -24.768914  -20.566625 H    1996 MOH     0.0372 ****
12282 O1     -1.671660  -25.549485  -21.321815 O    1996 MOH    -0.6497 ****
12283 HO1    -2.357552  -25.308210  -21.947604 H    1996 MOH     0.4215 ****
12284 HC1    -3.795154  -26.278208  -17.176048 H    1997 MOH     0.0372 ****
12285 C1     -3.357523  -27.181661  -17.601019 C    1997 MOH     0.1166 ****
12286 HC2    -3.113881  -26.986519  -18.644709 H    1997 MOH     0.0372 ****
12287 HC3    -4.063045  -28.007956  -17.507681 H    1997 MOH     0.0372 ****
12288 O1     -2.221297  -27.479274  -16.853607 O    1997 MOH    -0.6497 ****
12289 HO1    -1.593718  -26.753409  -16.901690 H    1997 MOH     0.4215 ****
12290 HC1     1.420513   -9.948031  -30.287929 H    1998 MOH     0.0372 ****
12291 C1      0.384169   -9.809227  -29.981045 C    1998 MOH     0.1166 ****
12292 HC2    -0.179325   -9.445069  -30.839472 H    1998 MOH     0.0372 ****
12293 HC3     0.314310   -9.059275  -29.192621 H    1998 MOH     0.0372 ****
12294 O1     -0.141220  -11.051935  -29.563852 O    1998 MOH    -0.6497 ****
12295 HO1    -0.903899  -10.899658  -29.001702 H    1998 MOH     0.4215 ****
12296 HC1     8.028287  -19.249968  -21.690217 H    1999 MOH     0.0372 ****
12297 C1      8.089486  -18.470214  -20.932199 C    1999 MOH     0.1166 ****
12298 HC2     8.449752  -18.916021  -20.004475 H    1999 MOH     0.0372 ****
12299 HC3     7.096443  -18.044820  -20.786535 H    1999 MOH     0.0372 ****
12300 O1      8.960707  -17.447552  -21.359999 O    1999 MOH    -0.6497 ****
12301 HO1     9.847517  -17.807627  -21.426467 H    1999 MOH     0.4215 ****
12302 HC1    14.286764  -14.500816  -27.470815 H    2000 MOH     0.0372 ****
12303 C1     14.720354  -14.307715  -26.490058 C    2000 MOH     0.1166 ****
12304 HC2    15.006142  -13.256884  -26.439147 H    2000 MOH     0.0372 ****
12305 HC3    15.608318  -14.927027  -26.363486 H    2000 MOH     0.0372 ****
12306 O1     13.765994  -14.622474  -25.482431 O    2000 MOH    -0.6497 ****
12307 HO1    13.966912  -15.514088  -25.189689 H    2000 MOH     0.4215 ****
12308 HC1     2.470136  -11.399354  -25.618903 H    2001 MOH     0.0372 ****
12309 C1      3.074044  -10.847810  -24.898361 C    2001 MOH     0.1166 ****
12310 HC2     3.885798  -11.483045  -24.544808 H    2001 MOH     0.0372 ****
12311 HC3     2.425680  -10.562037  -24.069632 H    2001 MOH     0.0372 ****
12312 O1      3.578648   -9.723903  -25.553849 O    2001 MOH    -0.6497 ****
12313 HO1     4.391557   -9.462216  -25.114736 H    2001 MOH     0.4215 ****
12314 HC1     0.531971  -16.720870  -21.234134 H    2002 MOH     0.0372 ****
12315 C1     -0.488207  -17.013584  -20.985939 C    2002 MOH     0.1166 ****
12316 HC2    -0.649288  -16.956021  -19.910430 H    2002 MOH     0.0372 ****
12317 HC3    -0.696631  -18.035838  -21.302723 H    2002 MOH     0.0372 ****
12318 O1     -1.374440  -16.121154  -21.586980 O    2002 MOH    -0.6497 ****
12319 HO1    -0.922952  -15.744749  -22.346413 H    2002 MOH     0.4215 ****
12320 HC1    13.239450  -11.747998  -30.557337 H    2003 MOH     0.0372 ****
12321 C1     13.287948  -12.835571  -30.608248 C    2003 MOH     0.1166 ****
12322 HC2    12.909783  -13.190339  -31.566378 H    2003 MOH     0.0372 ****
12323 HC3    12.681153  -13.282195  -29.820531 H    2003 MOH     0.0372 ****
12324 O1     14.624514  -13.269948  -30.534709 O    2003 MOH    -0.6497 ****
12325 HO1    14.592182  -14.229331  -30.513496 H    2003 MOH     0.4215 ****
12326 HC1    -4.869141  -13.934168  -25.029883 H    2004 MOH     0.0372 ****
12327 C1     -3.828756  -13.906815  -25.355859 C    2004 MOH     0.1166 ****
12328 HC2    -3.244477  -14.546540  -24.693300 H    2004 MOH     0.0372 ****
12329 HC3    -3.487542  -12.873130  -25.302119 H    2004 MOH     0.0372 ****
12330 O1     -3.761783  -14.388956  -26.678856 O    2004 MOH    -0.6497 ****
12331 HO1    -4.356454  -15.141766  -26.722697 H    2004 MOH     0.4215 ****
12332 HC1     5.942898   -9.458133  -28.561174 H    2005 MOH     0.0372 ****
12333 C1      5.277213   -8.599179  -28.476321 C    2005 MOH     0.1166 ****
12334 HC2     4.235095   -8.919246  -28.483392 H    2005 MOH     0.0372 ****
12335 HC3     5.412313   -7.974559  -29.358791 H    2005 MOH     0.0372 ****
12336 O1      5.502957   -7.802278  -27.272826 O    2005 MOH    -0.6497 ****
12337 HO1     5.430210   -8.369335  -26.502786 H    2005 MOH     0.4215 ****
12338 HC1     6.017376  -20.112189  -19.611324 H    2006 MOH     0.0372 ****
12339 C1      6.317020  -21.159346  -19.626173 C    2006 MOH     0.1166 ****
12340 HC2     6.950951  -21.347956  -20.493086 H    2006 MOH     0.0372 ****
12341 HC3     5.449263  -21.813359  -19.705369 H    2006 MOH     0.0372 ****
12342 O1      7.021965  -21.470431  -18.432577 O    2006 MOH    -0.6497 ****
12343 HO1     7.456132  -22.318771  -18.551370 H    2006 MOH     0.4215 ****
12344 HC1     2.883518   -5.204186  -25.827499 H    2007 MOH     0.0372 ****
12345 C1      2.429144   -4.906165  -26.772194 C    2007 MOH     0.1166 ****
12346 HC2     1.348344   -5.040887  -26.724111 H    2007 MOH     0.0372 ****
12347 HC3     2.851764   -5.530785  -27.559911 H    2007 MOH     0.0372 ****
12348 O1      2.710891   -3.548739  -27.031702 O    2007 MOH    -0.6497 ****
12349 HO1     2.441268   -3.354413  -27.932556 H    2007 MOH     0.4215 ****
12350 HC1     3.924481   -2.290518  -22.704209 H    2008 MOH     0.0372 ****
12351 C1      3.582690   -2.960045  -23.493340 C    2008 MOH     0.1166 ****
12352 HC2     3.084436   -3.836146  -23.077561 H    2008 MOH     0.0372 ****
12353 HC3     4.455066   -3.278071  -24.063975 H    2008 MOH     0.0372 ****
12354 O1      2.801535   -2.230097  -24.415407 O    2008 MOH    -0.6497 ****
12355 HO1     2.828670   -2.717137  -25.242015 H    2008 MOH     0.4215 ****
12356 HC1     6.691143  -18.996446  -27.035238 H    2009 MOH     0.0372 ****
12357 C1      6.550847  -19.150764  -28.104383 C    2009 MOH     0.1166 ****
12358 HC2     6.354548  -18.196280  -28.593701 H    2009 MOH     0.0372 ****
12359 HC3     5.716576  -19.829681  -28.280453 H    2009 MOH     0.0372 ****
12360 O1      7.726333  -19.705165  -28.655926 O    2009 MOH    -0.6497 ****
12361 HO1     8.372965  -19.806003  -27.953769 H    2009 MOH     0.4215 ****
12362 HC1     9.454342  -10.960079  -25.744768 H    2010 MOH     0.0372 ****
12363 C1      9.937007  -11.925994  -25.891846 C    2010 MOH     0.1166 ****
12364 HC2     9.163935  -12.680029  -26.039631 H    2010 MOH     0.0372 ****
12365 HC3    10.501655  -12.168494  -24.992406 H    2010 MOH     0.0372 ****
12366 O1     10.845179  -11.898233  -27.014732 O    2010 MOH    -0.6497 ****
12367 HO1    11.556474  -11.294026  -26.785629 H    2010 MOH     0.4215 ****
12368 HC1    12.018932   -7.688377  -17.608797 H    2011 MOH     0.0372 ****
12369 C1     11.307636   -8.514263  -17.619404 C    2011 MOH     0.1166 ****
12370 HC2    11.669635   -9.245436  -18.342774 H    2011 MOH     0.0372 ****
12371 HC3    10.318635   -8.141941  -17.889519 H    2011 MOH     0.0372 ****
12372 O1     11.244128   -9.087852  -16.334591 O    2011 MOH    -0.6497 ****
12373 HO1    10.968154   -8.404036  -15.720115 H    2011 MOH     0.4215 ****
12374 HC1     7.948612   -6.158671  -34.616837 H    2012 MOH     0.0372 ****
12375 C1      7.367798   -5.777367  -33.776794 C    2012 MOH     0.1166 ****
12376 HC2     7.665133   -4.770218  -33.484759 H    2012 MOH     0.0372 ****
12377 HC3     7.575644   -6.432605  -32.930387 H    2012 MOH     0.0372 ****
12378 O1      5.988508   -5.821049  -34.061758 O    2012 MOH    -0.6497 ****
12379 HO1     5.583208   -6.495884  -33.512336 H    2012 MOH     0.4215 ****
12380 HC1    -3.473685  -16.515521  -23.590921 H    2013 MOH     0.0372 ****
12381 C1     -3.865129  -17.284661  -24.255601 C    2013 MOH     0.1166 ****
12382 HC2    -3.365721  -17.250777  -25.223630 H    2013 MOH     0.0372 ****
12383 HC3    -4.936691  -17.122178  -24.380052 H    2013 MOH     0.0372 ****
12384 O1     -3.724255  -18.551456  -23.670824 O    2013 MOH    -0.6497 ****
12385 HO1    -4.170547  -18.551864  -22.821588 H    2013 MOH     0.4215 ****
12386 HC1     6.881092  -15.156463  -28.839774 H    2014 MOH     0.0372 ****
12387 C1      5.817613  -14.955605  -28.971296 C    2014 MOH     0.1166 ****
12388 HC2     5.235643  -15.876613  -28.944426 H    2014 MOH     0.0372 ****
12389 HC3     5.652490  -14.484894  -29.940739 H    2014 MOH     0.0372 ****
12390 O1      5.367279  -14.065215  -27.991953 O    2014 MOH    -0.6497 ****
12391 HO1     5.477553  -13.170743  -28.322172 H    2014 MOH     0.4215 ****
12392 HC1    10.594031  -12.228914  -31.636381 H    2015 MOH     0.0372 ****
12393 C1     10.189886  -11.883128  -32.587440 C    2015 MOH     0.1166 ****
12394 HC2     9.256888  -12.406502  -32.799572 H    2015 MOH     0.0372 ****
12395 HC3    10.910997  -12.028056  -33.391421 H    2015 MOH     0.0372 ****
12396 O1      9.943358  -10.517129  -32.433291 O    2015 MOH    -0.6497 ****
12397 HO1    10.767814  -10.061524  -32.245200 H    2015 MOH     0.4215 ****
12398 HC1     7.546199  -19.909698  -25.013619 H    2016 MOH     0.0372 ****
12399 C1      8.300219  -20.663324  -25.241308 C    2016 MOH     0.1166 ****
12400 HC2     7.814090  -21.552897  -25.640823 H    2016 MOH     0.0372 ****
12401 HC3     8.789234  -20.952772  -24.311462 H    2016 MOH     0.0372 ****
12402 O1      9.234371  -20.121170  -26.186002 O    2016 MOH    -0.6497 ****
12403 HO1     9.450878  -19.223432  -25.926494 H    2016 MOH     0.4215 ****
12404 HC1     2.888715  -22.133834  -25.525565 H    2017 MOH     0.0372 ****
12405 C1      2.977049  -21.147915  -25.069481 C    2017 MOH     0.1166 ****
12406 HC2     2.376028  -21.116071  -24.161556 H    2017 MOH     0.0372 ****
12407 HC3     2.624866  -20.412660  -25.792851 H    2017 MOH     0.0372 ****
12408 O1      4.317079  -20.944199  -24.761889 O    2017 MOH    -0.6497 ****
12409 HO1     4.802053  -21.410827  -25.445662 H    2017 MOH     0.4215 ****
12410 HC1    12.833573  -10.341583  -33.303032 H    2018 MOH     0.0372 ****
12411 C1     13.253884   -9.458133  -32.822200 C    2018 MOH     0.1166 ****
12412 HC2    13.507341   -8.716346  -33.579511 H    2018 MOH     0.0372 ****
12413 HC3    14.140694   -9.741049  -32.255807 H    2018 MOH     0.0372 ****
12414 O1     12.248717   -8.961703  -31.999127 O    2018 MOH    -0.6497 ****
12415 HO1    12.604942   -8.765336  -31.130093 H    2018 MOH     0.4215 ****
12416 HC1     7.184778   -8.033755  -20.727138 H    2019 MOH     0.0372 ****
12417 C1      7.142054   -7.159695  -21.376969 C    2019 MOH     0.1166 ****
12418 HC2     7.942839   -6.459550  -21.138674 H    2019 MOH     0.0372 ****
12419 HC3     6.202705   -6.643670  -21.181808 H    2019 MOH     0.0372 ****
12420 O1      7.142631   -7.514055  -22.768555 O    2019 MOH    -0.6497 ****
12421 HO1     7.251751   -6.721645  -23.299593 H    2019 MOH     0.4215 ****
12422 HC1    12.293173  -19.879896  -20.198929 H    2020 MOH     0.0372 ****
12423 C1     12.368229  -18.838046  -20.508642 C    2020 MOH     0.1166 ****
12424 HC2    13.406882  -18.613509  -20.751887 H    2020 MOH     0.0372 ****
12425 HC3    12.006230  -18.236696  -19.673549 H    2020 MOH     0.0372 ****
12426 O1     11.480264  -18.680462  -21.584859 O    2020 MOH    -0.6497 ****
12427 HO1    11.847459  -19.200979  -22.302572 H    2020 MOH     0.4215 ****
12428 HC1     2.018070  -23.792547  -19.650214 H    2021 MOH     0.0372 ****
12429 C1      3.010535  -23.771727  -20.100641 C    2021 MOH     0.1166 ****
12430 HC2     3.533615  -22.860516  -19.810728 H    2021 MOH     0.0372 ****
12431 HC3     2.950491  -23.827248  -21.186757 H    2021 MOH     0.0372 ****
12432 O1      3.745502  -24.836438  -19.652336 O    2021 MOH    -0.6497 ****
12433 HO1     3.298633  -25.632522  -19.947906 H    2021 MOH     0.4215 ****
12434 HC1    -0.041915  -11.563061  -26.644915 H    2022 MOH     0.0372 ****
12435 C1     -0.281516  -12.195846  -25.790730 C    2022 MOH     0.1166 ****
12436 HC2    -1.327097  -12.071331  -25.510008 H    2022 MOH     0.0372 ****
12437 HC3     0.350683  -11.888435  -24.957051 H    2022 MOH     0.0372 ****
12438 O1      0.020438  -13.545923  -26.106807 O    2022 MOH    -0.6497 ****
12439 HO1    -0.442019  -13.819042  -26.902302 H    2022 MOH     0.4215 ****
12440 HC1     9.193380  -23.189565  -24.124079 H    2023 MOH     0.0372 ****
12441 C1      9.444527  -23.710081  -23.199890 C    2023 MOH     0.1166 ****
12442 HC2     8.777687  -24.563728  -23.078975 H    2023 MOH     0.0372 ****
12443 HC3     9.321551  -23.040146  -22.349241 H    2023 MOH     0.0372 ****
12444 O1     10.784557  -24.140783  -23.296764 O    2023 MOH    -0.6497 ****
12445 HO1    10.974505  -24.696409  -22.538038 H    2023 MOH     0.4215 ****
12446 HC1     0.719610  -16.961329  -24.903311 H    2024 MOH     0.0372 ****
12447 C1     -0.290176  -16.562062  -24.811387 C    2024 MOH     0.1166 ****
12448 HC2    -0.902745  -17.303441  -24.298027 H    2024 MOH     0.0372 ****
12449 HC3    -0.691434  -16.370185  -25.806993 H    2024 MOH     0.0372 ****
12450 O1     -0.222049  -15.373243  -24.049126 O    2024 MOH    -0.6497 ****
12451 HO1     0.112237  -14.680037  -24.623296 H    2024 MOH     0.4215 ****
12452 HC1    -3.536617   -9.725128  -26.479452 H    2025 MOH     0.0372 ****
12453 C1     -2.674055   -9.262174  -26.958870 C    2025 MOH     0.1166 ****
12454 HC2    -1.887127   -9.147456  -26.212873 H    2025 MOH     0.0372 ****
12455 HC3    -2.991021   -8.270131  -27.281311 H    2025 MOH     0.0372 ****
12456 O1     -2.291272  -10.049685  -28.117818 O    2025 MOH    -0.6497 ****
12457 HO1    -2.985247  -10.003553  -28.778963 H    2025 MOH     0.4215 ****
12458 HC1     3.149677  -14.287711  -20.218728 H    2026 MOH     0.0372 ****
12459 C1      3.757627  -13.416917  -20.466923 C    2026 MOH     0.1166 ****
12460 HC2     4.807249  -13.686361  -20.581474 H    2026 MOH     0.0372 ****
12461 HC3     3.701046  -12.694726  -19.651629 H    2026 MOH     0.0372 ****
12462 O1      3.362719  -12.854759  -21.676783 O    2026 MOH    -0.6497 ****
12463 HO1     3.644466  -13.453251  -22.372576 H    2026 MOH     0.4215 ****
12464 HC1     8.730345   -8.037837  -30.906647 H    2027 MOH     0.0372 ****
12465 C1      7.715363   -8.421183  -31.010592 C    2027 MOH     0.1166 ****
12466 HC2     6.994252   -7.603870  -30.989379 H    2027 MOH     0.0372 ****
12467 HC3     7.480381   -9.116021  -30.204490 H    2027 MOH     0.0372 ****
12468 O1      7.587768   -9.133168  -32.192875 O    2027 MOH    -0.6497 ****
12469 HO1     8.308302   -9.766361  -32.224694 H    2027 MOH     0.4215 ****
12470 HC1    11.604394  -16.319971  -23.646782 H    2028 MOH     0.0372 ****
12471 C1     10.982011  -15.425499  -23.655974 C    2028 MOH     0.1166 ****
12472 HC2    11.425993  -14.638396  -23.046448 H    2028 MOH     0.0372 ****
12473 HC3    10.010330  -15.703516  -23.246559 H    2028 MOH     0.0372 ****
12474 O1     10.802455  -14.972751  -24.977557 O    2028 MOH    -0.6497 ****
12475 HO1    11.659820  -14.697184  -25.310604 H    2028 MOH     0.4215 ****
12476 HC1     3.344821  -10.352197  -29.464857 H    2029 MOH     0.0372 ****
12477 C1      3.526109  -11.390372  -29.185549 C    2029 MOH     0.1166 ****
12478 HC2     2.866775  -12.027648  -29.774569 H    2029 MOH     0.0372 ****
12479 HC3     3.301520  -11.545099  -28.129839 H    2029 MOH     0.0372 ****
12480 O1      4.856324  -11.785965  -29.426673 O    2029 MOH    -0.6497 ****
12481 HO1     5.035880  -11.677779  -30.363589 H    2029 MOH     0.4215 ****
12482 HC1     7.233275  -16.140341  -25.806286 H    2030 MOH     0.0372 ****
12483 C1      7.687073  -15.260974  -25.349495 C    2030 MOH     0.1166 ****
12484 HC2     8.524231  -14.944174  -25.971749 H    2030 MOH     0.0372 ****
12485 HC3     7.990759  -15.510006  -24.332676 H    2030 MOH     0.0372 ****
12486 O1      6.736754  -14.263216  -25.384850 O    2030 MOH    -0.6497 ****
12487 HO1     6.408819  -14.207694  -26.285704 H    2030 MOH     0.4215 ****
12488 HC1    -0.933922   -4.667748  -28.135496 H    2031 MOH     0.0372 ****
12489 C1     -1.841516   -4.731435  -27.535869 C    2031 MOH     0.1166 ****
12490 HC2    -2.452353   -5.578142  -27.848411 H    2031 MOH     0.0372 ****
12491 HC3    -2.390576   -3.799404  -27.668098 H    2031 MOH     0.0372 ****
12492 O1     -1.469703   -4.914738  -26.211458 O    2031 MOH    -0.6497 ****
12493 HO1    -0.942582   -5.717354  -26.212873 H    2031 MOH     0.4215 ****
12494 HC1    14.596223  -12.821283  -20.429446 H    2032 MOH     0.0372 ****
12495 C1     14.343344  -11.956613  -19.815677 C    2032 MOH     0.1166 ****
12496 HC2    15.151057  -11.773309  -19.107863 H    2032 MOH     0.0372 ****
12497 HC3    13.425357  -12.189314  -19.276862 H    2032 MOH     0.0372 ****
12498 O1     14.151086  -10.848219  -20.671984 O    2032 MOH    -0.6497 ****
12499 HO1    13.465771  -11.119296  -21.287167 H    2032 MOH     0.4215 ****
12500 HC1    10.855571  -20.080754  -23.963566 H    2033 MOH     0.0372 ****
12501 C1     11.678295  -20.771510  -24.148828 C    2033 MOH     0.1166 ****
12502 HC2    11.953691  -20.650260  -25.196053 H    2033 MOH     0.0372 ****
12503 HC3    11.369990  -21.811318  -24.042055 H    2033 MOH     0.0372 ****
12504 O1     12.768332  -20.460833  -23.264237 O    2033 MOH    -0.6497 ****
12505 HO1    13.379169  -21.201395  -23.251509 H    2033 MOH     0.4215 ****
12506 HC1    15.689725  -19.123003  -25.028469 H    2034 MOH     0.0372 ****
12507 C1     14.858340  -18.439596  -25.198174 C    2034 MOH     0.1166 ****
12508 HC2    13.936312  -18.899691  -24.841085 H    2034 MOH     0.0372 ****
12509 HC3    14.787904  -18.251393  -26.269441 H    2034 MOH     0.0372 ****
12510 O1     15.186275  -17.218933  -24.546222 O    2034 MOH    -0.6497 ****
12511 HO1    15.799421  -17.416117  -23.834165 H    2034 MOH     0.4215 ****
12512 HC1     8.196296  -16.893559  -16.545309 H    2035 MOH     0.0372 ****
12513 C1      7.304867  -16.266898  -16.577128 C    2035 MOH     0.1166 ****
12514 HC2     6.416325  -16.897642  -16.617433 H    2035 MOH     0.0372 ****
12515 HC3     7.314104  -15.648810  -17.475154 H    2035 MOH     0.0372 ****
12516 O1      7.315259  -15.419375  -15.455657 O    2035 MOH    -0.6497 ****
12517 HO1     8.071011  -14.839254  -15.572330 H    2035 MOH     0.4215 ****
12518 HC1     9.853291  -15.631664  -17.958815 H    2036 MOH     0.0372 ****
12519 C1     10.077880  -14.565728  -17.908610 C    2036 MOH     0.1166 ****
12520 HC2     9.718768  -14.017858  -18.779766 H    2036 MOH     0.0372 ****
12521 HC3    11.163876  -14.519187  -17.980735 H    2036 MOH     0.0372 ****
12522 O1      9.717036  -13.967644  -16.642182 O    2036 MOH    -0.6497 ****
12523 HO1     9.644867  -13.018875  -16.768047 H    2036 MOH     0.4215 ****
12524 HC1     4.095377  -17.725569  -21.509198 H    2037 MOH     0.0372 ****
12525 C1      4.440632  -18.568602  -22.106703 C    2037 MOH     0.1166 ****
12526 HC2     5.180795  -19.100550  -21.507784 H    2037 MOH     0.0372 ****
12527 HC3     4.882305  -18.182807  -23.025235 H    2037 MOH     0.0372 ****
12528 O1      3.388123  -19.486344  -22.440458 O    2037 MOH    -0.6497 ****
12529 HO1     3.666983  -19.999512  -23.202012 H    2037 MOH     0.4215 ****
12530 HC1    11.252788   -9.188281  -27.731738 H    2038 MOH     0.0372 ****
12531 C1     10.760308   -8.751864  -28.600772 C    2038 MOH     0.1166 ****
12532 HC2     9.818073   -8.264415  -28.350456 H    2038 MOH     0.0372 ****
12533 HC3    10.508006   -9.586323  -29.255553 H    2038 MOH     0.0372 ****
12534 O1     11.598043   -7.826773  -29.300808 O    2038 MOH    -0.6497 ****
12535 HO1    11.057066   -7.127036  -29.672746 H    2038 MOH     0.4215 ****
12536 HC1    10.128110  -16.024399  -28.085998 H    2039 MOH     0.0372 ****
12537 C1     10.791485  -16.846203  -27.816591 C    2039 MOH     0.1166 ****
12538 HC2    11.807622  -16.460000  -27.738809 H    2039 MOH     0.0372 ****
12539 HC3    10.777629  -17.628815  -28.575316 H    2039 MOH     0.0372 ****
12540 O1     10.413321  -17.273230  -26.529656 O    2039 MOH    -0.6497 ****
12541 HO1    10.467014  -16.504091  -25.958314 H    2039 MOH     0.4215 ****
12542 HC1    13.908022   -9.825148  -23.982658 H    2040 MOH     0.0372 ****
12543 C1     13.568540  -10.571018  -24.701785 C    2040 MOH     0.1166 ****
12544 HC2    13.062204  -11.408335  -24.220246 H    2040 MOH     0.0372 ****
12545 HC3    14.455350  -10.967835  -25.196760 H    2040 MOH     0.0372 ****
12546 O1     12.727341   -9.950481  -25.656379 O    2040 MOH    -0.6497 ****
12547 HO1    13.256771   -9.265440  -26.072158 H    2040 MOH     0.4215 ****
12548 HC1     7.276577  -12.328935  -29.819824 H    2041 MOH     0.0372 ****
12549 C1      7.933024  -12.053368  -28.994631 C    2041 MOH     0.1166 ****
12550 HC2     7.386273  -12.089294  -28.051350 H    2041 MOH     0.0372 ****
12551 HC3     8.279434  -11.030706  -29.145244 H    2041 MOH     0.0372 ****
12552 O1      9.051929  -12.925386  -28.929577 O    2041 MOH    -0.6497 ****
12553 HO1     9.656992  -12.598787  -28.259239 H    2041 MOH     0.4215 ****
12554 HC1    11.053025   -7.614076  -22.052256 H    2042 MOH     0.0372 ****
12555 C1     10.741256   -8.032938  -21.094834 C    2042 MOH     0.1166 ****
12556 HC2    10.214135   -7.286661  -20.502278 H    2042 MOH     0.0372 ****
12557 HC3    11.633839   -8.366477  -20.566625 H    2042 MOH     0.0372 ****
12558 O1      9.926614   -9.147048  -21.321815 O    2042 MOH    -0.6497 ****
12559 HO1     9.240722   -8.905773  -21.947604 H    2042 MOH     0.4215 ****
12560 HC1     3.732801   -2.219891  -29.771741 H    2043 MOH     0.0372 ****
12561 C1      2.825206   -1.840220  -30.241260 C    2043 MOH     0.1166 ****
12562 HC2     2.955687   -1.860224  -31.323840 H    2043 MOH     0.0372 ****
12563 HC3     2.682023   -0.809393  -29.919526 H    2043 MOH     0.0372 ****
12564 O1      1.684939   -2.633447  -29.867200 O    2043 MOH    -0.6497 ****
12565 HO1     0.911867   -2.128443  -30.129537 H    2043 MOH     0.4215 ****
12566 HC1     5.890359  -10.689818  -23.259995 H    2044 MOH     0.0372 ****
12567 C1      6.472328  -10.447319  -24.149535 C    2044 MOH     0.1166 ****
12568 HC2     6.435955  -11.269123  -24.864420 H    2044 MOH     0.0372 ****
12569 HC3     7.499434  -10.304024  -23.812245 H    2044 MOH     0.0372 ****
12570 O1      6.006406   -9.202978  -24.681279 O    2044 MOH    -0.6497 ****
12571 HO1     6.422098   -8.525694  -24.143171 H    2044 MOH     0.4215 ****
12572 HC1     3.384658  -15.256075  -25.588497 H    2045 MOH     0.0372 ****
12573 C1      3.547471  -15.480204  -24.534201 C    2045 MOH     0.1166 ****
12574 HC2     4.115007  -16.406927  -24.442277 H    2045 MOH     0.0372 ****
12575 HC3     2.563666  -15.597779  -24.080238 H    2045 MOH     0.0372 ****
12576 O1      4.240292  -14.403653  -23.942353 O    2045 MOH    -0.6497 ****
12577 HO1     5.078604  -14.313022  -24.400558 H    2045 MOH     0.4215 ****
12578 HC1     1.320054  -21.322237  -20.828961 H    2046 MOH     0.0372 ****
12579 C1      0.926878  -20.887452  -19.910430 C    2046 MOH     0.1166 ****
12580 HC2     0.742704  -19.822741  -20.051851 H    2046 MOH     0.0372 ****
12581 HC3     1.626049  -21.031564  -19.086650 H    2046 MOH     0.0372 ****
12582 O1     -0.237637  -21.548406  -19.581625 O    2046 MOH    -0.6497 ****
12583 HO1    -0.661990  -21.098925  -18.846941 H    2046 MOH     0.4215 ****
12584 HC1     7.659937  -12.697992  -21.033315 H    2047 MOH     0.0372 ****
12585 C1      7.723446  -13.621041  -21.609607 C    2047 MOH     0.1166 ****
12586 HC2     8.755171  -13.825165  -21.895278 H    2047 MOH     0.0372 ****
12587 HC3     7.106258  -13.509181  -22.500562 H    2047 MOH     0.0372 ****
12588 O1      7.205562  -14.674322  -20.844518 O    2047 MOH    -0.6497 ****
12589 HO1     7.455555  -15.498983  -21.268782 H    2047 MOH     0.4215 ****
12590 HC1     2.272105   -7.074372  -32.364702 H    2048 MOH     0.0372 ****
12591 C1      3.143326   -7.729610  -32.383793 C    2048 MOH     0.1166 ****
12592 HC2     3.142749   -8.301158  -33.311518 H    2048 MOH     0.0372 ****
12593 HC3     3.115613   -8.438737  -31.555771 H    2048 MOH     0.0372 ****
12594 O1      4.321698   -6.944957  -32.310254 O    2048 MOH    -0.6497 ****
12595 HO1     4.292253   -6.434238  -31.497789 H    2048 MOH     0.4215 ****
12596 HC1    15.221494  -14.023982  -22.477227 H    2049 MOH     0.0372 ****
12597 C1     16.080014  -13.662274  -23.042913 C    2049 MOH     0.1166 ****
12598 HC2    15.731871  -13.142982  -23.935281 H    2049 MOH     0.0372 ****
12599 HC3    16.709325  -14.502857  -23.336362 H    2049 MOH     0.0372 ****
12600 O1     16.829414  -12.772701  -22.247418 O    2049 MOH    -0.6497 ****
12601 HO1    16.996846  -13.191156  -21.399597 H    2049 MOH     0.4215 ****
12602 HC1     0.968448   -7.761862  -27.762851 H    2050 MOH     0.0372 ****
12603 C1      0.597789   -8.158679  -26.818156 C    2050 MOH     0.1166 ****
12604 HC2     1.452267   -8.281562  -26.152768 H    2050 MOH     0.0372 ****
12605 HC3     0.126094   -9.134392  -26.934121 H    2050 MOH     0.0372 ****
12606 O1     -0.257267   -7.223382  -26.256006 O    2050 MOH    -0.6497 ****
12607 HO1    -0.072515   -7.221749  -25.314140 H    2050 MOH     0.4215 ****
12608 HC1     0.852400  -20.816417  -15.611221 H    2051 MOH     0.0372 ****
12609 C1      1.746716  -21.258958  -15.171400 C    2051 MOH     0.1166 ****
12610 HC2     1.812534  -20.985840  -14.118518 H    2051 MOH     0.0372 ****
12611 HC3     2.636990  -20.889085  -15.680517 H    2051 MOH     0.0372 ****
12612 O1      1.695331  -22.671497  -15.287366 O    2051 MOH    -0.6497 ****
12613 HO1     2.600617  -22.979725  -15.198977 H    2051 MOH     0.4215 ****
12614 HC1     0.256575  -12.436713  -22.024679 H    2052 MOH     0.0372 ****
12615 C1      0.190179  -12.697175  -20.968262 C    2052 MOH     0.1166 ****
12616 HC2     0.298144  -13.775359  -20.844518 H    2052 MOH     0.0372 ****
12617 HC3    -0.793625  -12.382416  -20.619658 H    2052 MOH     0.0372 ****
12618 O1      1.173984  -11.978250  -20.244891 O    2052 MOH    -0.6497 ****
12619 HO1     1.996708  -12.087252  -20.727845 H    2052 MOH     0.4215 ****
12620 HC1     7.803120   -9.875771  -17.176048 H    2053 MOH     0.0372 ****
12621 C1      8.240751  -10.779225  -17.601019 C    2053 MOH     0.1166 ****
12622 HC2     8.484393  -10.584082  -18.644709 H    2053 MOH     0.0372 ****
12623 HC3     7.535229  -11.605519  -17.507681 H    2053 MOH     0.0372 ****
12624 O1      9.376977  -11.076838  -16.853607 O    2053 MOH    -0.6497 ****
12625 HO1    10.004557  -10.350972  -16.901690 H    2053 MOH     0.4215 ****
12626 HC1     4.583238  -17.073597  -17.808908 H    2054 MOH     0.0372 ****
12627 C1      4.172742  -18.030123  -17.485761 C    2054 MOH     0.1166 ****
12628 HC2     4.951587  -18.792730  -17.464547 H    2054 MOH     0.0372 ****
12629 HC3     3.387545  -18.308956  -18.187918 H    2054 MOH     0.0372 ****
12630 O1      3.576916  -17.885603  -16.229939 O    2054 MOH    -0.6497 ****
12631 HO1     4.197568  -17.436530  -15.651526 H    2054 MOH     0.4215 ****
12632 HC1     0.966138   -6.348098  -30.838058 H    2055 MOH     0.0372 ****
12633 C1      1.532519   -6.043136  -29.957710 C    2055 MOH     0.1166 ****
12634 HC2     1.918189   -6.936792  -29.466271 H    2055 MOH     0.0372 ****
12635 HC3     0.878381   -5.519354  -29.261210 H    2055 MOH     0.0372 ****
12636 O1      2.627175   -5.228681  -30.362882 O    2055 MOH    -0.6497 ****
12637 HO1     2.276146   -4.353397  -30.539659 H    2055 MOH     0.4215 ****
12638 HC1     9.784009  -12.089702  -20.978161 H    2056 MOH     0.0372 ****
12639 C1     10.709501  -11.790047  -20.484600 C    2056 MOH     0.1166 ****
12640 HC2    11.153484  -12.644103  -19.972655 H    2056 MOH     0.0372 ****
12641 HC3    10.463550  -11.038054  -19.735067 H    2056 MOH     0.0372 ****
12642 O1     11.591692  -11.290760  -21.510612 O    2056 MOH    -0.6497 ****
12643 HO1    11.401167  -10.352605  -21.585566 H    2056 MOH     0.4215 ****
12644 HC1    -1.316127  -20.321620  -21.775777 H    2057 MOH     0.0372 ****
12645 C1     -0.832885  -20.472264  -22.740978 C    2057 MOH     0.1166 ****
12646 HC2    -0.377356  -21.461858  -22.760777 H    2057 MOH     0.0372 ****
12647 HC3    -0.072515  -19.703124  -22.879571 H    2057 MOH     0.0372 ****
12648 O1     -1.864033  -20.422866  -23.727392 O    2057 MOH    -0.6497 ****
12649 HO1    -2.376720  -19.621883  -23.597285 H    2057 MOH     0.4215 ****
12650 HC1     8.200914   -8.220733  -25.630217 H    2058 MOH     0.0372 ****
12651 C1      9.146614   -7.877804  -25.210195 C    2058 MOH     0.1166 ****
12652 HC2     9.032876   -6.903315  -24.734312 H    2058 MOH     0.0372 ****
12653 HC3     9.876385   -7.764311  -26.012054 H    2058 MOH     0.0372 ****
12654 O1      9.588287   -8.800037  -24.237923 O    2058 MOH    -0.6497 ****
12655 HO1    10.419671   -9.188281  -24.520059 H    2058 MOH     0.4215 ****
12656 HC1     8.118931  -16.286494  -30.559458 H    2059 MOH     0.0372 ****
12657 C1      8.900663  -15.613293  -30.910890 C    2059 MOH     0.1166 ****
12658 HC2     9.460115  -16.048077  -31.738912 H    2059 MOH     0.0372 ****
12659 HC3     9.585978  -15.408352  -30.089232 H    2059 MOH     0.0372 ****
12660 O1      8.326777  -14.413859  -31.356367 O    2059 MOH    -0.6497 ****
12661 HO1     8.521921  -13.770460  -30.670474 H    2059 MOH     0.4215 ****
12662 HC1     7.517216   -4.086566  -26.196609 H    2060 MOH     0.0372 ****
12663 C1      6.716431   -4.480525  -25.570820 C    2060 MOH     0.1166 ****
12664 HC2     6.150628   -5.210881  -26.149940 H    2060 MOH     0.0372 ****
12665 HC3     6.043818   -3.703629  -25.209488 H    2060 MOH     0.0372 ****
12666 O1      7.213530   -5.221496  -24.526423 O    2060 MOH    -0.6497 ****
12667 HO1     7.757971   -4.625453  -24.007406 H    2060 MOH     0.4215 ****
12668 HC1    19.626561   -2.847532  -21.690217 H    2061 MOH     0.0372 ****
12669 C1     19.687760   -2.067778  -20.932199 C    2061 MOH     0.1166 ****
12670 HC2    20.048026   -2.513585  -20.004475 H    2061 MOH     0.0372 ****
12671 HC3    18.694717   -1.642383  -20.786535 H    2061 MOH     0.0372 ****
12672 O1     20.558981   -1.045116  -21.359999 O    2061 MOH    -0.6497 ****
12673 HO1    21.445791   -1.405191  -21.426467 H    2061 MOH     0.4215 ****
12674 HC1    14.068410    5.003083  -25.618903 H    2062 MOH     0.0372 ****
12675 C1     14.672318    5.554626  -24.898361 C    2062 MOH     0.1166 ****
12676 HC2    15.484073    4.919392  -24.544808 H    2062 MOH     0.0372 ****
12677 HC3    14.023954    5.840400  -24.069632 H    2062 MOH     0.0372 ****
12678 O1     15.176922    6.678534  -25.553849 O    2062 MOH    -0.6497 ****
12679 HO1    15.989831    6.940221  -25.114736 H    2062 MOH     0.4215 ****
12680 HC1    12.130245   -0.318434  -21.234134 H    2063 MOH     0.0372 ****
12681 C1     11.110067   -0.611148  -20.985939 C    2063 MOH     0.1166 ****
12682 HC2    10.948986   -0.553585  -19.910430 H    2063 MOH     0.0372 ****
12683 HC3    10.901643   -1.633402  -21.302723 H    2063 MOH     0.0372 ****
12684 O1     10.223834    0.281283  -21.586980 O    2063 MOH    -0.6497 ****
12685 HO1    10.675322    0.657688  -22.346413 H    2063 MOH     0.4215 ****
12686 HC1     6.729133    2.468269  -25.029883 H    2064 MOH     0.0372 ****
12687 C1      7.769518    2.495622  -25.355859 C    2064 MOH     0.1166 ****
12688 HC2     8.353797    1.855897  -24.693300 H    2064 MOH     0.0372 ****
12689 HC3     8.110732    3.529306  -25.302119 H    2064 MOH     0.0372 ****
12690 O1      7.836491    2.013480  -26.678856 O    2064 MOH    -0.6497 ****
12691 HO1     7.241820    1.260671  -26.722697 H    2064 MOH     0.4215 ****
12692 HC1     9.609534   -2.213931  -29.189792 H    2065 MOH     0.0372 ****
12693 C1     10.524056   -1.907744  -29.697495 C    2065 MOH     0.1166 ****
12694 HC2    11.119305   -1.253322  -29.060392 H    2065 MOH     0.0372 ****
12695 HC3    10.248660   -1.361508  -30.599763 H    2065 MOH     0.0372 ****
12696 O1     11.226114   -3.047165  -30.095596 O    2065 MOH    -0.6497 ****
12697 HO1    12.160844   -2.848349  -30.005793 H    2065 MOH     0.4215 ****
12698 HC1     6.555351   -2.551552  -34.045494 H    2066 MOH     0.0372 ****
12699 C1      6.598075   -2.309869  -32.983420 C    2066 MOH     0.1166 ****
12700 HC2     7.634996   -2.371923  -32.652494 H    2066 MOH     0.0372 ****
12701 HC3     6.000517   -3.011648  -32.401471 H    2066 MOH     0.0372 ****
12702 O1      6.164485   -1.016130  -32.714012 O    2066 MOH    -0.6497 ****
12703 HO1     5.394877   -0.824662  -33.254949 H    2066 MOH     0.4215 ****
12704 HC1     3.952078    1.386003  -26.330252 H    2067 MOH     0.0372 ****
12705 C1      3.517334    0.500512  -25.867097 C    2067 MOH     0.1166 ****
12706 HC2     3.105105   -0.174322  -26.617338 H    2067 MOH     0.0372 ****
12707 HC3     2.695187    0.786694  -25.210195 H    2067 MOH     0.0372 ****
12708 O1      4.422619   -0.202083  -25.071602 O    2067 MOH    -0.6497 ****
12709 HO1     3.896075   -0.919784  -24.710978 H    2067 MOH     0.4215 ****
12710 HC1    17.615650   -3.709752  -19.611324 H    2068 MOH     0.0372 ****
12711 C1     17.915295   -4.756909  -19.626173 C    2068 MOH     0.1166 ****
12712 HC2    18.549225   -4.945520  -20.493086 H    2068 MOH     0.0372 ****
12713 HC3    17.047537   -5.410923  -19.705369 H    2068 MOH     0.0372 ****
12714 O1     18.620239   -5.067994  -18.432577 O    2068 MOH    -0.6497 ****
12715 HO1    19.054407   -5.916334  -18.551370 H    2068 MOH     0.4215 ****
12716 HC1    18.289418   -2.594010  -27.035238 H    2069 MOH     0.0372 ****
12717 C1     18.149121   -2.748328  -28.104383 C    2069 MOH     0.1166 ****
12718 HC2    17.952822   -1.793843  -28.593701 H    2069 MOH     0.0372 ****
12719 HC3    17.314850   -3.427245  -28.280453 H    2069 MOH     0.0372 ****
12720 O1     19.324607   -3.302729  -28.655926 O    2069 MOH    -0.6497 ****
12721 HO1    19.971239   -3.403566  -27.953769 H    2069 MOH     0.4215 ****
12722 HC1    23.617206    8.714060  -17.608797 H    2070 MOH     0.0372 ****
12723 C1     22.905910    7.888173  -17.619404 C    2070 MOH     0.1166 ****
12724 HC2    23.267909    7.157001  -18.342774 H    2070 MOH     0.0372 ****
12725 HC3    21.916909    8.260496  -17.889519 H    2070 MOH     0.0372 ****
12726 O1     22.842402    7.314585  -16.334591 O    2070 MOH    -0.6497 ****
12727 HO1    22.566428    7.998400  -15.720115 H    2070 MOH     0.4215 ****
12728 HC1     8.124589   -0.113085  -23.590921 H    2071 MOH     0.0372 ****
12729 C1      7.733145   -0.882225  -24.255601 C    2071 MOH     0.1166 ****
12730 HC2     8.232553   -0.848340  -25.223630 H    2071 MOH     0.0372 ****
12731 HC3     6.661583   -0.719742  -24.380052 H    2071 MOH     0.0372 ****
12732 O1      7.874019   -2.149019  -23.670824 O    2071 MOH    -0.6497 ****
12733 HO1     7.427727   -2.149427  -22.821588 H    2071 MOH     0.4215 ****
12734 HC1    18.479366    1.245974  -28.839774 H    2072 MOH     0.0372 ****
12735 C1     17.415887    1.446832  -28.971296 C    2072 MOH     0.1166 ****
12736 HC2    16.833918    0.525824  -28.944426 H    2072 MOH     0.0372 ****
12737 HC3    17.250764    1.917542  -29.940739 H    2072 MOH     0.0372 ****
12738 O1     16.965553    2.337221  -27.991953 O    2072 MOH    -0.6497 ****
12739 HO1    17.075827    3.231693  -28.322172 H    2072 MOH     0.4215 ****
12740 HC1    17.959751   -7.082292  -26.432783 H    2073 MOH     0.0372 ****
12741 C1     17.773844   -6.496455  -27.332930 C    2073 MOH     0.1166 ****
12742 HC2    17.791742   -7.120259  -28.226713 H    2073 MOH     0.0372 ****
12743 HC3    18.521512   -5.710986  -27.441824 H    2073 MOH     0.0372 ****
12744 O1     16.531386   -5.908169  -27.203529 O    2073 MOH    -0.6497 ****
12745 HO1    16.232896   -5.797534  -28.109333 H    2073 MOH     0.4215 ****
12746 HC1    19.144473   -3.507261  -25.013619 H    2074 MOH     0.0372 ****
12747 C1     19.898493   -4.260888  -25.241308 C    2074 MOH     0.1166 ****
12748 HC2    19.412364   -5.150461  -25.640823 H    2074 MOH     0.0372 ****
12749 HC3    20.387508   -4.550336  -24.311462 H    2074 MOH     0.0372 ****
12750 O1     20.832645   -3.718734  -26.186002 O    2074 MOH    -0.6497 ****
12751 HO1    21.049152   -2.820996  -25.926494 H    2074 MOH     0.4215 ****
12752 HC1    15.081082  -10.136805  -27.748001 H    2075 MOH     0.0372 ****
12753 C1     14.674050   -9.136189  -27.892958 C    2075 MOH     0.1166 ****
12754 HC2    13.628469   -9.181912  -28.198428 H    2075 MOH     0.0372 ****
12755 HC3    15.230616   -8.678542  -28.709666 H    2075 MOH     0.0372 ****
12756 O1     14.828780   -8.312344  -26.736131 O    2075 MOH    -0.6497 ****
12757 HO1    15.111682   -7.432160  -26.996347 H    2075 MOH     0.4215 ****
12758 HC1    14.486989   -5.731398  -25.525565 H    2076 MOH     0.0372 ****
12759 C1     14.575323   -4.745478  -25.069481 C    2076 MOH     0.1166 ****
12760 HC2    13.974302   -4.713635  -24.161556 H    2076 MOH     0.0372 ****
12761 HC3    14.223140   -4.010223  -25.792851 H    2076 MOH     0.0372 ****
12762 O1     15.915353   -4.541762  -24.761889 O    2076 MOH    -0.6497 ****
12763 HO1    16.400327   -5.008390  -25.445662 H    2076 MOH     0.4215 ****
12764 HC1    18.783052    8.368682  -20.727138 H    2077 MOH     0.0372 ****
12765 C1     18.740328    9.242741  -21.376969 C    2077 MOH     0.1166 ****
12766 HC2    19.541113    9.942887  -21.138674 H    2077 MOH     0.0372 ****
12767 HC3    17.800979    9.758767  -21.181808 H    2077 MOH     0.0372 ****
12768 O1     18.740905    8.888382  -22.768555 O    2077 MOH    -0.6497 ****
12769 HO1    18.850025    9.680792  -23.299593 H    2077 MOH     0.4215 ****
12770 HC1    16.450557  -10.568732  -24.711685 H    2078 MOH     0.0372 ****
12771 C1     17.526738  -10.560567  -24.881390 C    2078 MOH     0.1166 ****
12772 HC2    17.947049   -9.700388  -24.361667 H    2078 MOH     0.0372 ****
12773 HC3    17.730542  -10.500146  -25.950536 H    2078 MOH     0.0372 ****
12774 O1     18.120254  -11.705295  -24.380759 O    2078 MOH    -0.6497 ****
12775 HO1    17.658374  -11.966574  -23.581728 H    2078 MOH     0.4215 ****
12776 HC1    12.265922    1.084716  -27.842047 H    2079 MOH     0.0372 ****
12777 C1     13.297647    0.800983  -28.047815 C    2079 MOH     0.1166 ****
12778 HC2    13.568424   -0.024903  -27.390912 H    2079 MOH     0.0372 ****
12779 HC3    13.946011    1.651772  -27.837097 H    2079 MOH     0.0372 ****
12780 O1     13.435634    0.481733  -29.409702 O    2079 MOH    -0.6497 ****
12781 HO1    13.138876    1.274551  -29.862251 H    2079 MOH     0.4215 ****
12782 HC1    23.891447   -3.477459  -20.198929 H    2080 MOH     0.0372 ****
12783 C1     23.966503   -2.435609  -20.508642 C    2080 MOH     0.1166 ****
12784 HC2    25.005156   -2.211073  -20.751887 H    2080 MOH     0.0372 ****
12785 HC3    23.604504   -1.834260  -19.673549 H    2080 MOH     0.0372 ****
12786 O1     23.078538   -2.278026  -21.584859 O    2080 MOH    -0.6497 ****
12787 HO1    23.445733   -2.798542  -22.302572 H    2080 MOH     0.4215 ****
12788 HC1    13.616344   -7.390111  -19.650214 H    2081 MOH     0.0372 ****
12789 C1     14.608810   -7.369290  -20.100641 C    2081 MOH     0.1166 ****
12790 HC2    15.131889   -6.458080  -19.810728 H    2081 MOH     0.0372 ****
12791 HC3    14.548765   -7.424812  -21.186757 H    2081 MOH     0.0372 ****
12792 O1     15.343776   -8.434002  -19.652336 O    2081 MOH    -0.6497 ****
12793 HO1    14.896907   -9.230086  -19.947906 H    2081 MOH     0.4215 ****
12794 HC1    11.556359    4.839375  -26.644915 H    2082 MOH     0.0372 ****
12795 C1     11.316758    4.206590  -25.790730 C    2082 MOH     0.1166 ****
12796 HC2    10.271177    4.331106  -25.510008 H    2082 MOH     0.0372 ****
12797 HC3    11.948957    4.514001  -24.957051 H    2082 MOH     0.0372 ****
12798 O1     11.618713    2.856513  -26.106807 O    2082 MOH    -0.6497 ****
12799 HO1    11.156255    2.583395  -26.902302 H    2082 MOH     0.4215 ****
12800 HC1    20.791654   -6.787128  -24.124079 H    2083 MOH     0.0372 ****
12801 C1     21.042801   -7.307645  -23.199890 C    2083 MOH     0.1166 ****
12802 HC2    20.375961   -8.161292  -23.078975 H    2083 MOH     0.0372 ****
12803 HC3    20.919825   -6.637709  -22.349241 H    2083 MOH     0.0372 ****
12804 O1     22.382831   -7.738347  -23.296764 O    2083 MOH    -0.6497 ****
12805 HO1    22.572779   -8.293972  -22.538038 H    2083 MOH     0.4215 ****
12806 HC1    12.317884   -0.558892  -24.903311 H    2084 MOH     0.0372 ****
12807 C1     11.308098   -0.159625  -24.811387 C    2084 MOH     0.1166 ****
12808 HC2    10.695529   -0.901004  -24.298027 H    2084 MOH     0.0372 ****
12809 HC3    10.906840    0.032251  -25.806993 H    2084 MOH     0.0372 ****
12810 O1     11.376225    1.029194  -24.049126 O    2084 MOH    -0.6497 ****
12811 HO1    11.710511    1.722399  -24.623296 H    2084 MOH     0.4215 ****
12812 HC1     8.061658    6.677309  -26.479452 H    2085 MOH     0.0372 ****
12813 C1      8.924219    7.140262  -26.958870 C    2085 MOH     0.1166 ****
12814 HC2     9.711147    7.254980  -26.212873 H    2085 MOH     0.0372 ****
12815 HC3     8.607254    8.132306  -27.281311 H    2085 MOH     0.0372 ****
12816 O1      9.307002    6.352751  -28.117818 O    2085 MOH    -0.6497 ****
12817 HO1     8.613027    6.398884  -28.778963 H    2085 MOH     0.4215 ****
12818 HC1    14.747951    2.114726  -20.218728 H    2086 MOH     0.0372 ****
12819 C1     15.355901    2.985520  -20.466923 C    2086 MOH     0.1166 ****
12820 HC2    16.405524    2.716076  -20.581474 H    2086 MOH     0.0372 ****
12821 HC3    15.299320    3.707711  -19.651629 H    2086 MOH     0.0372 ****
12822 O1     14.960993    3.547677  -21.676783 O    2086 MOH    -0.6497 ****
12823 HO1    15.242740    2.949186  -22.372576 H    2086 MOH     0.4215 ****
12824 HC1    13.807447   -5.629336  -30.017107 H    2087 MOH     0.0372 ****
12825 C1     14.664235   -5.887349  -30.640775 C    2087 MOH     0.1166 ****
12826 HC2    14.850142   -5.094122  -31.364145 H    2087 MOH     0.0372 ****
12827 HC3    14.418284   -6.791211  -31.197975 H    2087 MOH     0.0372 ****
12828 O1     15.827596   -6.078001  -29.839623 O    2087 MOH    -0.6497 ****
12829 HO1    16.523880   -6.425828  -30.401066 H    2087 MOH     0.4215 ****
12830 HC1    23.202668    0.082466  -23.646782 H    2088 MOH     0.0372 ****
12831 C1     22.580285    0.976938  -23.655974 C    2088 MOH     0.1166 ****
12832 HC2    23.024267    1.764041  -23.046448 H    2088 MOH     0.0372 ****
12833 HC3    21.608604    0.698921  -23.246559 H    2088 MOH     0.0372 ****
12834 O1     22.400729    1.429685  -24.977557 O    2088 MOH    -0.6497 ****
12835 HO1    23.258094    1.705253  -25.310604 H    2088 MOH     0.4215 ****
12836 HC1    18.831549    0.262095  -25.806286 H    2089 MOH     0.0372 ****
12837 C1     19.285347    1.141462  -25.349495 C    2089 MOH     0.1166 ****
12838 HC2    20.122505    1.458263  -25.971749 H    2089 MOH     0.0372 ****
12839 HC3    19.589033    0.892431  -24.332676 H    2089 MOH     0.0372 ****
12840 O1     18.335028    2.139221  -25.384850 O    2089 MOH    -0.6497 ****
12841 HO1    18.007093    2.194743  -26.285704 H    2089 MOH     0.4215 ****
12842 HC1    26.194497    3.581154  -20.429446 H    2090 MOH     0.0372 ****
12843 C1     25.941618    4.445824  -19.815677 C    2090 MOH     0.1166 ****
12844 HC2    26.749331    4.629127  -19.107863 H    2090 MOH     0.0372 ****
12845 HC3    25.023631    4.213122  -19.276862 H    2090 MOH     0.0372 ****
12846 O1     25.749360    5.554218  -20.671984 O    2090 MOH    -0.6497 ****
12847 HO1    25.064046    5.283141  -21.287167 H    2090 MOH     0.4215 ****
12848 HC1    22.453845   -3.678317  -23.963566 H    2091 MOH     0.0372 ****
12849 C1     23.276569   -4.369073  -24.148828 C    2091 MOH     0.1166 ****
12850 HC2    23.551965   -4.247824  -25.196053 H    2091 MOH     0.0372 ****
12851 HC3    22.968264   -5.408882  -24.042055 H    2091 MOH     0.0372 ****
12852 O1     24.366606   -4.058396  -23.264237 O    2091 MOH    -0.6497 ****
12853 HO1    24.977443   -4.798959  -23.251509 H    2091 MOH     0.4215 ****
12854 HC1    27.287999   -2.720567  -25.028469 H    2092 MOH     0.0372 ****
12855 C1     26.456614   -2.037159  -25.198174 C    2092 MOH     0.1166 ****
12856 HC2    25.534586   -2.497255  -24.841085 H    2092 MOH     0.0372 ****
12857 HC3    26.386178   -1.848957  -26.269441 H    2092 MOH     0.0372 ****
12858 O1     26.784549   -0.816497  -24.546222 O    2092 MOH    -0.6497 ****
12859 HO1    27.397695   -1.013681  -23.834165 H    2092 MOH     0.4215 ****
12860 HC1    19.794570   -0.491123  -16.545309 H    2093 MOH     0.0372 ****
12861 C1     18.903141    0.135538  -16.577128 C    2093 MOH     0.1166 ****
12862 HC2    18.014599   -0.495205  -16.617433 H    2093 MOH     0.0372 ****
12863 HC3    18.912378    0.753626  -17.475154 H    2093 MOH     0.0372 ****
12864 O1     18.913533    0.983062  -15.455657 O    2093 MOH    -0.6497 ****
12865 HO1    19.669285    1.563183  -15.572330 H    2093 MOH     0.4215 ****
12866 HC1    21.451565    0.770773  -17.958815 H    2094 MOH     0.0372 ****
12867 C1     21.676154    1.836709  -17.908610 C    2094 MOH     0.1166 ****
12868 HC2    21.317042    2.384578  -18.779766 H    2094 MOH     0.0372 ****
12869 HC3    22.762150    1.883249  -17.980735 H    2094 MOH     0.0372 ****
12870 O1     21.315310    2.434793  -16.642182 O    2094 MOH    -0.6497 ****
12871 HO1    21.243141    3.383562  -16.768047 H    2094 MOH     0.4215 ****
12872 HC1    15.693651   -1.323133  -21.509198 H    2095 MOH     0.0372 ****
12873 C1     16.038906   -2.166166  -22.106703 C    2095 MOH     0.1166 ****
12874 HC2    16.779069   -2.698113  -21.507784 H    2095 MOH     0.0372 ****
12875 HC3    16.480579   -1.780371  -23.025235 H    2095 MOH     0.0372 ****
12876 O1     14.986397   -3.083908  -22.440458 O    2095 MOH    -0.6497 ****
12877 HO1    15.265257   -3.597076  -23.202012 H    2095 MOH     0.4215 ****
12878 HC1    21.726384    0.378038  -28.085998 H    2096 MOH     0.0372 ****
12879 C1     22.389759   -0.443766  -27.816591 C    2096 MOH     0.1166 ****
12880 HC2    23.405896   -0.057563  -27.738809 H    2096 MOH     0.0372 ****
12881 HC3    22.375903   -1.226378  -28.575316 H    2096 MOH     0.0372 ****
12882 O1     22.011595   -0.870794  -26.529656 O    2096 MOH    -0.6497 ****
12883 HO1    22.065288   -0.101654  -25.958314 H    2096 MOH     0.4215 ****
12884 HC1    22.651299    8.788361  -22.052256 H    2097 MOH     0.0372 ****
12885 C1     22.339530    8.369498  -21.094834 C    2097 MOH     0.1166 ****
12886 HC2    21.812409    9.115776  -20.502278 H    2097 MOH     0.0372 ****
12887 HC3    23.232113    8.035959  -20.566625 H    2097 MOH     0.0372 ****
12888 O1     21.524888    7.255388  -21.321815 O    2097 MOH    -0.6497 ****
12889 HO1    20.838996    7.496663  -21.947604 H    2097 MOH     0.4215 ****
12890 HC1     8.212923   -5.994310  -29.766791 H    2098 MOH     0.0372 ****
12891 C1      8.856669   -5.210065  -30.163478 C    2098 MOH     0.1166 ****
12892 HC2     8.890733   -4.408673  -29.425966 H    2098 MOH     0.0372 ****
12893 HC3     8.457720   -4.769973  -31.078474 H    2098 MOH     0.0372 ****
12894 O1     10.168409   -5.674651  -30.393995 O    2098 MOH    -0.6497 ****
12895 HO1    10.610659   -4.887549  -30.719264 H    2098 MOH     0.4215 ****
12896 HC1    17.488633    5.712618  -23.259995 H    2099 MOH     0.0372 ****
12897 C1     18.070602    5.955118  -24.149535 C    2099 MOH     0.1166 ****
12898 HC2    18.034229    5.133314  -24.864420 H    2099 MOH     0.0372 ****
12899 HC3    19.097708    6.098413  -23.812245 H    2099 MOH     0.0372 ****
12900 O1     17.604680    7.199458  -24.681279 O    2099 MOH    -0.6497 ****
12901 HO1    18.020372    7.876742  -24.143171 H    2099 MOH     0.4215 ****
12902 HC1    14.982933    1.146361  -25.588497 H    2100 MOH     0.0372 ****
12903 C1     15.145745    0.922233  -24.534201 C    2100 MOH     0.1166 ****
12904 HC2    15.713281   -0.004491  -24.442277 H    2100 MOH     0.0372 ****
12905 HC3    14.161940    0.804657  -24.080238 H    2100 MOH     0.0372 ****
12906 O1     15.838566    1.998783  -23.942353 O    2100 MOH    -0.6497 ****
12907 HO1    16.676878    2.089415  -24.400558 H    2100 MOH     0.4215 ****
12908 HC1    12.918328   -4.919800  -20.828961 H    2101 MOH     0.0372 ****
12909 C1     12.525152   -4.485016  -19.910430 C    2101 MOH     0.1166 ****
12910 HC2    12.340978   -3.420304  -20.051851 H    2101 MOH     0.0372 ****
12911 HC3    13.224324   -4.629127  -19.086650 H    2101 MOH     0.0372 ****
12912 O1     11.360637   -5.145970  -19.581625 O    2101 MOH    -0.6497 ****
12913 HO1    10.936284   -4.696488  -18.846941 H    2101 MOH     0.4215 ****
12914 HC1    19.258211    3.704445  -21.033315 H    2102 MOH     0.0372 ****
12915 C1     19.321720    2.781395  -21.609607 C    2102 MOH     0.1166 ****
12916 HC2    20.353445    2.577271  -21.895278 H    2102 MOH     0.0372 ****
12917 HC3    18.704532    2.893255  -22.500562 H    2102 MOH     0.0372 ****
12918 O1     18.803837    1.728115  -20.844518 O    2102 MOH    -0.6497 ****
12919 HO1    19.053829    0.903453  -21.268782 H    2102 MOH     0.4215 ****
12920 HC1     7.207179    3.012056  -29.515768 H    2103 MOH     0.0372 ****
12921 C1      7.040902    4.082483  -29.396974 C    2103 MOH     0.1166 ****
12922 HC2     7.394241    4.403366  -28.416924 H    2103 MOH     0.0372 ****
12923 HC3     5.973959    4.295588  -29.469099 H    2103 MOH     0.0372 ****
12924 O1      7.727949    4.796917  -30.406723 O    2103 MOH    -0.6497 ****
12925 HO1     7.637305    4.267011  -31.201511 H    2103 MOH     0.4215 ****
12926 HC1     9.685167    2.562983  -29.839623 H    2104 MOH     0.0372 ****
12927 C1      9.952480    1.558284  -29.510819 C    2104 MOH     0.1166 ****
12928 HC2    10.897025    1.268835  -29.971145 H    2104 MOH     0.0372 ****
12929 HC3     9.189800    0.844666  -29.820531 H    2104 MOH     0.0372 ****
12930 O1     10.119911    1.566040  -28.081756 O    2104 MOH    -0.6497 ****
12931 HO1     9.291414    1.753834  -27.634864 H    2104 MOH     0.4215 ****
12932 HC1    26.819768    2.378454  -22.477227 H    2105 MOH     0.0372 ****
12933 C1     27.678288    2.740162  -23.042913 C    2105 MOH     0.1166 ****
12934 HC2    27.330145    3.259454  -23.935281 H    2105 MOH     0.0372 ****
12935 HC3    28.307599    1.899579  -23.336362 H    2105 MOH     0.0372 ****
12936 O1     28.427688    3.629735  -22.247418 O    2105 MOH    -0.6497 ****
12937 HO1    28.595120    3.211281  -21.399597 H    2105 MOH     0.4215 ****
12938 HC1    12.566722    8.640575  -27.762851 H    2106 MOH     0.0372 ****
12939 C1     12.196063    8.243758  -26.818156 C    2106 MOH     0.1166 ****
12940 HC2    13.050541    8.120875  -26.152768 H    2106 MOH     0.0372 ****
12941 HC3    11.724368    7.268044  -26.934121 H    2106 MOH     0.0372 ****
12942 O1     11.341007    9.179054  -26.256006 O    2106 MOH    -0.6497 ****
12943 HO1    11.525759    9.180687  -25.314140 H    2106 MOH     0.4215 ****
12944 HC1    12.450674   -4.413981  -15.611221 H    2107 MOH     0.0372 ****
12945 C1     13.344990   -4.856522  -15.171400 C    2107 MOH     0.1166 ****
12946 HC2    13.410808   -4.583404  -14.118518 H    2107 MOH     0.0372 ****
12947 HC3    14.235264   -4.486649  -15.680517 H    2107 MOH     0.0372 ****
12948 O1     13.293606   -6.269061  -15.287366 O    2107 MOH    -0.6497 ****
12949 HO1    14.198891   -6.577288  -15.198977 H    2107 MOH     0.4215 ****
12950 HC1    19.401394    6.526665  -17.176048 H    2108 MOH     0.0372 ****
12951 C1     19.839026    5.623212  -17.601019 C    2108 MOH     0.1166 ****
12952 HC2    20.082667    5.818355  -18.644709 H    2108 MOH     0.0372 ****
12953 HC3    19.133504    4.796917  -17.507681 H    2108 MOH     0.0372 ****
12954 O1     20.975251    5.325599  -16.853607 O    2108 MOH    -0.6497 ****
12955 HO1    21.602831    6.051464  -16.901690 H    2108 MOH     0.4215 ****
12956 HC1    16.181512   -0.671160  -17.808908 H    2109 MOH     0.0372 ****
12957 C1     15.771016   -1.627686  -17.485761 C    2109 MOH     0.1166 ****
12958 HC2    16.549861   -2.390294  -17.464547 H    2109 MOH     0.0372 ****
12959 HC3    14.985819   -1.906520  -18.187918 H    2109 MOH     0.0372 ****
12960 O1     15.175190   -1.483166  -16.229939 O    2109 MOH    -0.6497 ****
12961 HO1    15.795842   -1.034093  -15.651526 H    2109 MOH     0.4215 ****
12962 HC1     4.480931    0.649523  -31.441220 H    2110 MOH     0.0372 ****
12963 C1      5.039806    1.281899  -30.751791 C    2110 MOH     0.1166 ****
12964 HC2     5.084840    2.282516  -31.182419 H    2110 MOH     0.0372 ****
12965 HC3     6.053056    0.887532  -30.671181 H    2110 MOH     0.0372 ****
12966 O1      4.374699    1.294147  -29.463442 O    2110 MOH    -0.6497 ****
12967 HO1     4.841775    0.676059  -28.897757 H    2110 MOH     0.4215 ****
12968 HC1    12.955856   -5.563608  -33.542034 H    2111 MOH     0.0372 ****
12969 C1     12.073665   -4.980221  -33.281112 C    2111 MOH     0.1166 ****
12970 HC2    12.377928   -3.981646  -32.969985 H    2111 MOH     0.0372 ****
12971 HC3    11.538461   -5.470119  -32.467939 H    2111 MOH     0.0372 ****
12972 O1     11.252673   -4.925108  -34.448545 O    2111 MOH    -0.6497 ****
12973 HO1    11.162029   -5.813864  -34.801391 H    2111 MOH     0.4215 ****
12974 HC1    14.686175   -3.700771  -28.475614 H    2112 MOH     0.0372 ****
12975 C1     14.374405   -2.657288  -28.510970 C    2112 MOH     0.1166 ****
12976 HC2    15.180386   -2.000009  -28.182872 H    2112 MOH     0.0372 ****
12977 HC3    13.531474   -2.533997  -27.832147 H    2112 MOH     0.0372 ****
12978 O1     13.921185   -2.311094  -29.804975 O    2112 MOH    -0.6497 ****
12979 HO1    13.709875   -1.375389  -29.775276 H    2112 MOH     0.4215 ****
12980 HC1    21.382283    4.312735  -20.978161 H    2113 MOH     0.0372 ****
12981 C1     22.307775    4.612389  -20.484600 C    2113 MOH     0.1166 ****
12982 HC2    22.751758    3.758334  -19.972655 H    2113 MOH     0.0372 ****
12983 HC3    22.061824    5.364382  -19.735067 H    2113 MOH     0.0372 ****
12984 O1     23.189967    5.111677  -21.510612 O    2113 MOH    -0.6497 ****
12985 HO1    22.999441    6.049831  -21.585566 H    2113 MOH     0.4215 ****
12986 HC1    10.411473   -4.529923  -27.658906 H    2114 MOH     0.0372 ****
12987 C1     11.182813   -4.823045  -26.946142 C    2114 MOH     0.1166 ****
12988 HC2    12.080593   -5.079425  -27.508999 H    2114 MOH     0.0372 ****
12989 HC3    10.852569   -5.711394  -26.407327 H    2114 MOH     0.0372 ****
12990 O1     11.443198   -3.745678  -26.037510 O    2114 MOH    -0.6497 ****
12991 HO1    10.776936   -3.770581  -25.346667 H    2114 MOH     0.4215 ****
12992 HC1    10.282147   -3.919184  -21.775777 H    2115 MOH     0.0372 ****
12993 C1     10.765389   -4.069827  -22.740978 C    2115 MOH     0.1166 ****
12994 HC2    11.220918   -5.059421  -22.760777 H    2115 MOH     0.0372 ****
12995 HC3    11.525759   -3.300688  -22.879571 H    2115 MOH     0.0372 ****
12996 O1      9.734241   -4.020429  -23.727392 O    2115 MOH    -0.6497 ****
12997 HO1     9.221554   -3.219446  -23.597285 H    2115 MOH     0.4215 ****
12998 HC1     5.982042   -2.491540  -28.109333 H    2116 MOH     0.0372 ****
12999 C1      6.569784   -1.575839  -28.047815 C    2116 MOH     0.1166 ****
13000 HC2     7.035706   -1.365182  -29.010894 H    2116 MOH     0.0372 ****
13001 HC3     7.358445   -1.724441  -27.311009 H    2116 MOH     0.0372 ****
13002 O1      5.788052   -0.451115  -27.672341 O    2116 MOH    -0.6497 ****
13003 HO1     5.387948   -0.615230  -26.815328 H    2116 MOH     0.4215 ****
13004 HC1    25.214618    9.012326  -19.650214 H    2117 MOH     0.0372 ****
13005 C1     26.207084    9.033146  -20.100641 C    2117 MOH     0.1166 ****
13006 HC2    26.730163    9.944357  -19.810728 H    2117 MOH     0.0372 ****
13007 HC3    26.147039    8.977625  -21.186757 H    2117 MOH     0.0372 ****
13008 O1     26.942050    7.968435  -19.652336 O    2117 MOH    -0.6497 ****
13009 HO1    26.495181    7.172351  -19.947906 H    2117 MOH     0.4215 ****
13010 HC1    24.516602   11.482636  -20.828961 H    2118 MOH     0.0372 ****
13011 C1     24.123426   11.917421  -19.910430 C    2118 MOH     0.1166 ****
13012 HC2    23.939252   12.982132  -20.051851 H    2118 MOH     0.0372 ****
13013 HC3    24.822598   11.773309  -19.086650 H    2118 MOH     0.0372 ****
13014 O1     22.958911   11.256467  -19.581625 O    2118 MOH    -0.6497 ****
13015 HO1    22.534559   11.705948  -18.846941 H    2118 MOH     0.4215 ****
13016 HC1    24.048948   11.988456  -15.611221 H    2119 MOH     0.0372 ****
13017 C1     24.943264   11.545915  -15.171400 C    2119 MOH     0.1166 ****
13018 HC2    25.009082   11.819033  -14.118518 H    2119 MOH     0.0372 ****
13019 HC3    25.833538   11.915788  -15.680517 H    2119 MOH     0.0372 ****
13020 O1     24.891880   10.133376  -15.287366 O    2119 MOH    -0.6497 ****
13021 HO1    25.797165    9.825148  -15.198977 H    2119 MOH     0.4215 ****
13022 HC1    27.779786   15.731276  -17.808908 H    2120 MOH     0.0372 ****
13023 C1     27.369290   14.774750  -17.485761 C    2120 MOH     0.1166 ****
13024 HC2    28.148135   14.012143  -17.464547 H    2120 MOH     0.0372 ****
13025 HC3    26.584093   14.495917  -18.187918 H    2120 MOH     0.0372 ****
13026 O1     26.773464   14.919270  -16.229939 O    2120 MOH    -0.6497 ****
13027 HO1    27.394116   15.368343  -15.651526 H    2120 MOH     0.4215 ****
13028 HC1   -28.036591   16.692701   -3.676249 H    2121 MOH     0.0372 ****
13029 C1    -28.231158   17.434080   -2.901260 C    2121 MOH     0.1166 ****
13030 HC2   -29.295215   17.476130   -2.668621 H    2121 MOH     0.0372 ****
13031 HC3   -27.929781   18.422449   -3.248449 H    2121 MOH     0.0372 ****
13032 O1    -27.561432   17.103807   -1.689986 O    2121 MOH    -0.6497 ****
13033 HO1   -27.779093   16.209335   -1.417749 H    2121 MOH     0.4215 ****
13034 HC1   -28.357598   18.722512    0.105359 H    2122 MOH     0.0372 ****
13035 C1    -28.275037   19.662299    0.651245 C    2122 MOH     0.1166 ****
13036 HC2   -29.101802   20.317946    0.378302 H    2122 MOH     0.0372 ****
13037 HC3   -27.317790   20.124436    0.406586 H    2122 MOH     0.0372 ****
13038 O1    -28.316029   19.304265    1.992627 O    2122 MOH    -0.6497 ****
13039 HO1   -28.092017   20.047277    2.556898 H    2122 MOH     0.4215 ****
13040 HC1   -28.799271   12.216667   -1.660994 H    2123 MOH     0.0372 ****
13041 C1    -29.705133   12.541224   -2.172232 C    2123 MOH     0.1166 ****
13042 HC2   -30.590789   12.148489   -1.673015 H    2123 MOH     0.0372 ****
13043 HC3   -29.697628   12.192988   -3.205315 H    2123 MOH     0.0372 ****
13044 O1    -29.798087   13.933351   -2.158090 O    2123 MOH    -0.6497 ****
13045 HO1   -29.527887   14.218716   -1.281985 H    2123 MOH     0.4215 ****
13046 HC1   -29.199374   11.110722    2.776101 H    2124 MOH     0.0372 ****
13047 C1    -28.815436   11.707581    1.948786 C    2124 MOH     0.1166 ****
13048 HC2   -28.127812   11.090310    1.370373 H    2124 MOH     0.0372 ****
13049 HC3   -28.314296   12.569393    2.390728 H    2124 MOH     0.0372 ****
13050 O1    -29.880648   12.147265    1.161776 O    2124 MOH    -0.6497 ****
13051 HO1   -30.410078   11.391189    0.900147 H    2124 MOH     0.4215 ****
13052 HC1   -29.307339   16.567369    1.511794 H    2125 MOH     0.0372 ****
13053 C1    -28.667057   15.692085    1.620688 C    2125 MOH     0.1166 ****
13054 HC2   -28.817169   15.291185    2.623366 H    2125 MOH     0.0372 ****
13055 HC3   -27.628404   16.004803    1.514622 H    2125 MOH     0.0372 ****
13056 O1    -29.046377   14.750256    0.617304 O    2125 MOH    -0.6497 ****
13057 HO1   -29.117391   13.877013    1.009748 H    2125 MOH     0.4215 ****
13058 HC1   -21.971642   23.747476   -3.609073 H    2126 MOH     0.0372 ****
13059 C1    -22.651760   23.178787   -2.974799 C    2126 MOH     0.1166 ****
13060 HC2   -22.297267   23.215937   -1.944544 H    2126 MOH     0.0372 ****
13061 HC3   -22.706609   22.142244   -3.306432 H    2126 MOH     0.0372 ****
13062 O1    -23.884403   23.801773   -3.056823 O    2126 MOH    -0.6497 ****
13063 HO1   -23.782212   24.694612   -2.720947 H    2126 MOH     0.4215 ****
13064 HC1   -21.641975   24.121840    1.619981 H    2127 MOH     0.0372 ****
13065 C1    -21.808252   24.208797    2.694076 C    2127 MOH     0.1166 ****
13066 HC2   -21.736083   25.264935    2.953585 H    2127 MOH     0.0372 ****
13067 HC3   -21.021323   23.654804    3.206729 H    2127 MOH     0.0372 ****
13068 O1    -23.133848   23.689913    2.928129 O    2127 MOH    -0.6497 ****
13069 HO1   -23.445040   24.038558    3.766757 H    2127 MOH     0.4215 ****
13070 HC1   -25.854900   20.124681    1.818678 H    2128 MOH     0.0372 ****
13071 C1    -25.273508   20.881982    2.345473 C    2128 MOH     0.1166 ****
13072 HC2   -24.219844   20.637849    2.208294 H    2128 MOH     0.0372 ****
13073 HC3   -25.503293   20.892596    3.410376 H    2128 MOH     0.0372 ****
13074 O1    -25.401680   22.142244    1.793222 O    2128 MOH    -0.6497 ****
13075 HO1   -24.603204   22.618670    2.034346 H    2128 MOH     0.4215 ****
13076 HC1   -25.634352   19.802165   -2.843984 H    2129 MOH     0.0372 ****
13077 C1    -25.667261   20.887289   -2.942979 C    2129 MOH     0.1166 ****
13078 HC2   -25.222124   21.356366   -2.065459 H    2129 MOH     0.0372 ****
13079 HC3   -26.704759   21.213071   -3.017932 H    2129 MOH     0.0372 ****
13080 O1    -24.981369   21.264510   -4.108291 O    2129 MOH    -0.6497 ****
13081 HO1   -24.879755   22.217770   -4.067986 H    2129 MOH     0.4215 ****
13082 HC1   -25.900510   18.248780    0.318905 H    2130 MOH     0.0372 ****
13083 C1    -25.062775   18.476991   -0.340826 C    2130 MOH     0.1166 ****
13084 HC2   -24.705395   19.478424   -0.105359 H    2130 MOH     0.0372 ****
13085 HC3   -25.413227   18.432084   -1.371788 H    2130 MOH     0.0372 ****
13086 O1    -23.981975   17.535162   -0.136472 O    2130 MOH    -0.6497 ****
13087 HO1   -23.148859   17.923406   -0.414365 H    2130 MOH     0.4215 ****
13088 HC1   -28.036591   -7.910954  -17.881175 H    2131 MOH     0.0372 ****
13089 C1    -28.231158   -7.169575  -17.106186 C    2131 MOH     0.1166 ****
13090 HC2   -29.295214   -7.127525  -16.873548 H    2131 MOH     0.0372 ****
13091 HC3   -27.929781   -6.181206  -17.453375 H    2131 MOH     0.0372 ****
13092 O1    -27.561432   -7.499848  -15.894912 O    2131 MOH    -0.6497 ****
13093 HO1   -27.779093   -8.394320  -15.622676 H    2131 MOH     0.4215 ****
13094 HC1   -28.357598   -5.881143  -14.099568 H    2132 MOH     0.0372 ****
13095 C1    -28.275036   -4.941356  -13.553682 C    2132 MOH     0.1166 ****
13096 HC2   -29.101802   -4.285709  -13.826625 H    2132 MOH     0.0372 ****
13097 HC3   -27.317790   -4.479219  -13.798341 H    2132 MOH     0.0372 ****
13098 O1    -28.316028   -5.299389  -12.212300 O    2132 MOH    -0.6497 ****
13099 HO1   -28.092016   -4.556378  -11.648029 H    2132 MOH     0.4215 ****
13100 HC1   -28.799271  -12.386988  -15.865921 H    2133 MOH     0.0372 ****
13101 C1    -29.705133  -12.062431  -16.377159 C    2133 MOH     0.1166 ****
13102 HC2   -30.590788  -12.455166  -15.877942 H    2133 MOH     0.0372 ****
13103 HC3   -29.697628  -12.410666  -17.410242 H    2133 MOH     0.0372 ****
13104 O1    -29.798086  -10.670304  -16.363017 O    2133 MOH    -0.6497 ****
13105 HO1   -29.527887  -10.384938  -15.486912 H    2133 MOH     0.4215 ****
13106 HC1   -29.199374  -13.492933  -11.428826 H    2134 MOH     0.0372 ****
13107 C1    -28.815436  -12.896074  -12.256141 C    2134 MOH     0.1166 ****
13108 HC2   -28.127812  -13.513345  -12.834554 H    2134 MOH     0.0372 ****
13109 HC3   -28.314296  -12.034262  -11.814199 H    2134 MOH     0.0372 ****
13110 O1    -29.880648  -12.456390  -13.043150 O    2134 MOH    -0.6497 ****
13111 HO1   -30.410078  -13.212466  -13.304780 H    2134 MOH     0.4215 ****
13112 HC1   -29.307339   -8.036286  -12.693133 H    2135 MOH     0.0372 ****
13113 C1    -28.667057   -8.911570  -12.584238 C    2135 MOH     0.1166 ****
13114 HC2   -28.817168   -9.312470  -11.581561 H    2135 MOH     0.0372 ****
13115 HC3   -27.628404   -8.598852  -12.690304 H    2135 MOH     0.0372 ****
13116 O1    -29.046376   -9.853399  -13.587623 O    2135 MOH    -0.6497 ****
13117 HO1   -29.117391  -10.726642  -13.195178 H    2135 MOH     0.4215 ****
13118 HC1   -26.766536    5.353686   -7.485291 H    2136 MOH     0.0372 ****
13119 C1    -26.705337    6.133441   -6.727273 C    2136 MOH     0.1166 ****
13120 HC2   -26.345070    5.687633   -5.799549 H    2136 MOH     0.0372 ****
13121 HC3   -27.698379    6.558835   -6.581609 H    2136 MOH     0.0372 ****
13122 O1    -25.834115    7.156103   -7.155072 O    2136 MOH    -0.6497 ****
13123 HO1   -24.947305    6.796028   -7.221540 H    2136 MOH     0.4215 ****
13124 HC1   -20.508059   10.102839  -13.265889 H    2137 MOH     0.0372 ****
13125 C1    -20.074469   10.295940  -12.285132 C    2137 MOH     0.1166 ****
13126 HC2   -19.788680   11.346771  -12.234220 H    2137 MOH     0.0372 ****
13127 HC3   -19.186504    9.676627  -12.158560 H    2137 MOH     0.0372 ****
13128 O1    -21.028829    9.981181  -11.277505 O    2137 MOH    -0.6497 ****
13129 HO1   -20.827911    9.089566  -10.984763 H    2137 MOH     0.4215 ****
13130 HC1   -27.145277   -0.750850  -20.898400 H    2138 MOH     0.0372 ****
13131 C1    -27.332339   -1.736770  -20.473429 C    2138 MOH     0.1166 ****
13132 HC2   -27.724360   -1.642056  -19.460852 H    2138 MOH     0.0372 ****
13133 HC3   -26.375092   -2.253204  -20.404839 H    2138 MOH     0.0372 ****
13134 O1    -28.173538   -2.540611  -21.322664 O    2138 MOH    -0.6497 ****
13135 HO1   -28.889453   -2.886805  -20.785263 H    2138 MOH     0.4215 ****
13136 HC1   -24.514870   -0.278915  -14.261495 H    2139 MOH     0.0372 ****
13137 C1    -25.363575    0.155869  -13.733287 C    2139 MOH     0.1166 ****
13138 HC2   -25.499829    1.183022  -14.071284 H    2139 MOH     0.0372 ****
13139 HC3   -25.199030    0.143622  -12.655656 H    2139 MOH     0.0372 ****
13140 O1    -26.529245   -0.542235  -14.067041 O    2139 MOH    -0.6497 ****
13141 HO1   -26.502109   -1.342810  -13.537418 H    2139 MOH     0.4215 ****
13142 HC1   -16.438317    8.491483  -17.881175 H    2140 MOH     0.0372 ****
13143 C1    -16.632884    9.232862  -17.106186 C    2140 MOH     0.1166 ****
13144 HC2   -17.696940    9.274911  -16.873548 H    2140 MOH     0.0372 ****
13145 HC3   -16.331507   10.221231  -17.453375 H    2140 MOH     0.0372 ****
13146 O1    -15.963157    8.902589  -15.894912 O    2140 MOH    -0.6497 ****
13147 HO1   -16.180818    8.008117  -15.622676 H    2140 MOH     0.4215 ****
13148 HC1   -25.620495    6.796844  -23.875319 H    2141 MOH     0.0372 ****
13149 C1    -26.412620    6.264488  -23.349232 C    2141 MOH     0.1166 ****
13150 HC2   -26.385484    6.522093  -22.290693 H    2141 MOH     0.0372 ****
13151 HC3   -26.246920    5.196919  -23.491360 H    2141 MOH     0.0372 ****
13152 O1    -27.641221    6.680085  -23.905018 O    2141 MOH    -0.6497 ****
13153 HO1   -28.335774    6.321235  -23.347111 H    2141 MOH     0.4215 ****
13154 HC1   -21.555372   12.855657  -16.352410 H    2142 MOH     0.0372 ****
13155 C1    -21.506875   11.768083  -16.403322 C    2142 MOH     0.1166 ****
13156 HC2   -21.885039   11.413316  -17.361452 H    2142 MOH     0.0372 ****
13157 HC3   -22.113670   11.321460  -15.615605 H    2142 MOH     0.0372 ****
13158 O1    -20.170309   11.333707  -16.329783 O    2142 MOH    -0.6497 ****
13159 HO1   -20.202640   10.374324  -16.308570 H    2142 MOH     0.4215 ****
13160 HC1   -22.358466    7.274086  -23.430549 H    2143 MOH     0.0372 ****
13161 C1    -22.159858    8.234694  -22.956080 C    2143 MOH     0.1166 ****
13162 HC2   -21.095224    8.451883  -23.039519 H    2143 MOH     0.0372 ****
13163 HC3   -22.389066    8.199585  -21.891178 H    2143 MOH     0.0372 ****
13164 O1    -22.953137    9.230412  -23.607326 O    2143 MOH    -0.6497 ****
13165 HO1   -22.905794   10.006492  -23.043762 H    2143 MOH     0.4215 ****
13166 HC1   -23.517208    1.806825  -18.418576 H    2144 MOH     0.0372 ****
13167 C1    -23.469866    2.530241  -17.603989 C    2144 MOH     0.1166 ****
13168 HC2   -24.263145    3.257740  -17.775109 H    2144 MOH     0.0372 ****
13169 HC3   -22.509155    3.043817  -17.650658 H    2144 MOH     0.0372 ****
13170 O1    -23.655195    1.888475  -16.309984 O    2144 MOH    -0.6497 ****
13171 HO1   -23.846875    2.564126  -15.654496 H    2144 MOH     0.4215 ****
13172 HC1   -16.759323   10.521293  -14.099568 H    2145 MOH     0.0372 ****
13173 C1    -16.676762   11.461081  -13.553682 C    2145 MOH     0.1166 ****
13174 HC2   -17.503528   12.116728  -13.826625 H    2145 MOH     0.0372 ****
13175 HC3   -15.719516   11.923218  -13.798341 H    2145 MOH     0.0372 ****
13176 O1    -16.717754   11.103047  -12.212300 O    2145 MOH    -0.6497 ****
13177 HO1   -16.493742   11.846059  -11.648029 H    2145 MOH     0.4215 ****
13178 HC1   -28.851925   15.145522  -14.356248 H    2146 MOH     0.0372 ****
13179 C1    -29.517610   16.004476  -14.271395 C    2146 MOH     0.1166 ****
13180 HC2   -30.559727   15.684409  -14.278466 H    2146 MOH     0.0372 ****
13181 HC3   -29.382510   16.629096  -15.153864 H    2146 MOH     0.0372 ****
13182 O1    -29.291866   16.801377  -13.067899 O    2146 MOH    -0.6497 ****
13183 HO1   -29.364612   16.234320  -12.297860 H    2146 MOH     0.4215 ****
13184 HC1   -28.777447    4.491466   -5.406397 H    2147 MOH     0.0372 ****
13185 C1    -28.477802    3.444309   -5.421247 C    2147 MOH     0.1166 ****
13186 HC2   -27.843871    3.255698   -6.288159 H    2147 MOH     0.0372 ****
13187 HC3   -29.345559    2.790295   -5.500443 H    2147 MOH     0.0372 ****
13188 O1    -27.772857    3.133224   -4.227650 O    2147 MOH    -0.6497 ****
13189 HO1   -27.338690    2.284884   -4.346444 H    2147 MOH     0.4215 ****
13190 HC1   -21.971642   -0.856178  -17.814000 H    2148 MOH     0.0372 ****
13191 C1    -22.651760   -1.424868  -17.179725 C    2148 MOH     0.1166 ****
13192 HC2   -22.297267   -1.387718  -16.149471 H    2148 MOH     0.0372 ****
13193 HC3   -22.706609   -2.461411  -17.511358 H    2148 MOH     0.0372 ****
13194 O1    -23.884403   -0.801881  -17.261750 O    2148 MOH    -0.6497 ****
13195 HO1   -23.782212    0.090958  -16.925874 H    2148 MOH     0.4215 ****
13196 HC1   -28.103679    5.607209  -12.830311 H    2149 MOH     0.0372 ****
13197 C1    -28.243975    5.452891  -13.899457 C    2149 MOH     0.1166 ****
13198 HC2   -28.440274    6.407375  -14.388775 H    2149 MOH     0.0372 ****
13199 HC3   -29.078246    4.773974  -14.075526 H    2149 MOH     0.0372 ****
13200 O1    -27.068490    4.898489  -14.451000 O    2149 MOH    -0.6497 ****
13201 HO1   -26.421858    4.797652  -13.748843 H    2149 MOH     0.4215 ****
13202 HC1   -25.340481   13.643576  -11.539842 H    2150 MOH     0.0372 ****
13203 C1    -24.857816   12.677661  -11.686920 C    2150 MOH     0.1166 ****
13204 HC2   -25.630888   11.923626  -11.834705 H    2150 MOH     0.0372 ****
13205 HC3   -24.293167   12.435161  -10.787480 H    2150 MOH     0.0372 ****
13206 O1    -23.949644   12.705422  -12.809805 O    2150 MOH    -0.6497 ****
13207 HO1   -23.238348   13.309629  -12.580703 H    2150 MOH     0.4215 ****
13208 HC1   -21.641975   -0.481815  -12.584945 H    2151 MOH     0.0372 ****
13209 C1    -21.808252   -0.394858  -11.510850 C    2151 MOH     0.1166 ****
13210 HC2   -21.736083    0.661281  -11.251342 H    2151 MOH     0.0372 ****
13211 HC3   -21.021323   -0.948851  -10.998198 H    2151 MOH     0.0372 ****
13212 O1    -23.133848   -0.913741  -11.276798 O    2151 MOH    -0.6497 ****
13213 HO1   -23.445040   -0.565097  -10.438169 H    2151 MOH     0.4215 ****
13214 HC1   -22.775891   16.915278   -3.403871 H    2152 MOH     0.0372 ****
13215 C1    -23.487186   16.089392   -3.414478 C    2152 MOH     0.1166 ****
13216 HC2   -23.125188   15.358219   -4.137848 H    2152 MOH     0.0372 ****
13217 HC3   -24.476187   16.461714   -3.684592 H    2152 MOH     0.0372 ****
13218 O1    -23.550695   15.515803   -2.129665 O    2152 MOH    -0.6497 ****
13219 HO1   -23.826668   16.199619   -1.515189 H    2152 MOH     0.4215 ****
13220 HC1   -22.048429    5.656198  -13.766521 H    2153 MOH     0.0372 ****
13221 C1    -22.065172    4.649050  -14.184421 C    2153 MOH     0.1166 ****
13222 HC2   -21.563455    3.990545  -13.476607 H    2153 MOH     0.0372 ****
13223 HC3   -21.513803    4.620472  -15.124873 H    2153 MOH     0.0372 ****
13224 O1    -23.408089    4.213449  -14.333620 O    2153 MOH    -0.6497 ****
13225 HO1   -23.899992    4.474320  -13.550853 H    2153 MOH     0.4215 ****
13226 HC1   -27.913731    9.447192  -14.634848 H    2154 MOH     0.0372 ****
13227 C1    -28.977210    9.648050  -14.766370 C    2154 MOH     0.1166 ****
13228 HC2   -29.559179    8.727042  -14.739500 H    2154 MOH     0.0372 ****
13229 HC3   -29.142332   10.118760  -15.735813 H    2154 MOH     0.0372 ****
13230 O1    -29.427543   10.538440  -13.787027 O    2154 MOH    -0.6497 ****
13231 HO1   -29.317269   11.432912  -14.117246 H    2154 MOH     0.4215 ****
13232 HC1   -24.200791   12.374740  -17.431455 H    2155 MOH     0.0372 ****
13233 C1    -24.604936   12.720527  -18.382514 C    2155 MOH     0.1166 ****
13234 HC2   -25.537934   12.197152  -18.594646 H    2155 MOH     0.0372 ****
13235 HC3   -23.883826   12.575599  -19.186494 H    2155 MOH     0.0372 ****
13236 O1    -24.851465   14.086525  -18.228365 O    2155 MOH    -0.6497 ****
13237 HO1   -24.027009   14.542131  -18.040274 H    2155 MOH     0.4215 ****
13238 HC1   -28.433346    1.118927  -12.227856 H    2156 MOH     0.0372 ****
13239 C1    -28.619253    1.704763  -13.128003 C    2156 MOH     0.1166 ****
13240 HC2   -28.601355    1.080960  -14.021786 H    2156 MOH     0.0372 ****
13241 HC3   -27.871584    2.490233  -13.236898 H    2156 MOH     0.0372 ****
13242 O1    -29.861710    2.293049  -12.998603 O    2156 MOH    -0.6497 ****
13243 HO1   -30.160201    2.403684  -13.904407 H    2156 MOH     0.4215 ****
13244 HC1   -27.248623    4.693957  -10.808693 H    2157 MOH     0.0372 ****
13245 C1    -26.494604    3.940331  -11.036381 C    2157 MOH     0.1166 ****
13246 HC2   -26.980733    3.050758  -11.435897 H    2157 MOH     0.0372 ****
13247 HC3   -26.005588    3.650883  -10.106536 H    2157 MOH     0.0372 ****
13248 O1    -25.560451    4.482484  -11.981076 O    2157 MOH    -0.6497 ****
13249 HO1   -25.343945    5.380222  -11.721568 H    2157 MOH     0.4215 ****
13250 HC1   -21.961249   14.262072  -19.098106 H    2158 MOH     0.0372 ****
13251 C1    -21.540938   15.145522  -18.617273 C    2158 MOH     0.1166 ****
13252 HC2   -21.287482   15.887309  -19.374585 H    2158 MOH     0.0372 ****
13253 HC3   -20.654128   14.862605  -18.050881 H    2158 MOH     0.0372 ****
13254 O1    -22.546105   15.641951  -17.794201 O    2158 MOH    -0.6497 ****
13255 HO1   -22.189880   15.838319  -16.925167 H    2158 MOH     0.4215 ****
13256 HC1   -27.610045   16.569900   -6.522212 H    2159 MOH     0.0372 ****
13257 C1    -27.652768   17.443960   -7.172043 C    2159 MOH     0.1166 ****
13258 HC2   -26.851984   18.144105   -6.933748 H    2159 MOH     0.0372 ****
13259 HC3   -28.592117   17.959985   -6.976882 H    2159 MOH     0.0372 ****
13260 O1    -27.652191   17.089600   -8.563629 O    2159 MOH    -0.6497 ****
13261 HO1   -27.543072   17.882010   -9.094666 H    2159 MOH     0.4215 ****
13262 HC1   -29.942540   -2.367514  -10.506759 H    2160 MOH     0.0372 ****
13263 C1    -28.866359   -2.359349  -10.676464 C    2160 MOH     0.1166 ****
13264 HC2   -28.446048   -1.499169  -10.156741 H    2160 MOH     0.0372 ****
13265 HC3   -28.662554   -2.298928  -11.745610 H    2160 MOH     0.0372 ****
13266 O1    -28.272843   -3.504077  -10.175833 O    2160 MOH    -0.6497 ****
13267 HO1   -28.734723   -3.765356   -9.376802 H    2160 MOH     0.4215 ****
13268 HC1   -28.633109    8.558435  -19.323673 H    2161 MOH     0.0372 ****
13269 C1    -28.618675    9.265930  -20.153109 C    2161 MOH     0.1166 ****
13270 HC2   -29.609408    9.697040  -20.294531 H    2161 MOH     0.0372 ****
13271 HC3   -28.279771    8.772766  -21.063863 H    2161 MOH     0.0372 ****
13272 O1    -27.741680   10.317577  -19.846225 O    2161 MOH    -0.6497 ****
13273 HO1   -27.545381   10.324517  -18.906480 H    2161 MOH     0.4215 ****
13274 HC1   -22.501649    4.723759   -5.994003 H    2162 MOH     0.0372 ****
13275 C1    -22.426594    5.765609   -6.303716 C    2162 MOH     0.1166 ****
13276 HC2   -21.387941    5.990145   -6.546961 H    2162 MOH     0.0372 ****
13277 HC3   -22.788592    6.366959   -5.468623 H    2162 MOH     0.0372 ****
13278 O1    -23.314559    5.923193   -7.379932 O    2162 MOH    -0.6497 ****
13279 HO1   -22.947364    5.402676   -8.097646 H    2162 MOH     0.4215 ****
13280 HC1   -23.879207   13.196952  -21.972495 H    2163 MOH     0.0372 ****
13281 C1    -23.135580   12.676028  -22.574950 C    2163 MOH     0.1166 ****
13282 HC2   -22.219902   13.265538  -22.623033 H    2163 MOH     0.0372 ****
13283 HC3   -23.471598   12.554778  -23.605205 H    2163 MOH     0.0372 ****
13284 O1    -22.797253   11.447200  -21.990880 O    2163 MOH    -0.6497 ****
13285 HO1   -23.501043   11.175715  -21.397617 H    2163 MOH     0.4215 ****
13286 HC1   -23.163293    7.519852  -17.312661 H    2164 MOH     0.0372 ****
13287 C1    -23.202552    6.450241  -17.517722 C    2164 MOH     0.1166 ****
13288 HC2   -23.980821    6.021989  -16.886276 H    2164 MOH     0.0372 ****
13289 HC3   -22.233759    6.013824  -17.273770 H    2164 MOH     0.0372 ****
13290 O1    -23.491228    6.158344  -18.885974 O    2164 MOH    -0.6497 ****
13291 HO1   -23.061679    5.343888  -19.158210 H    2164 MOH     0.4215 ****
13292 HC1   -19.001752    6.199985  -19.559139 H    2165 MOH     0.0372 ****
13293 C1    -19.524254    7.129158  -19.331451 C    2165 MOH     0.1166 ****
13294 HC2   -20.556556    6.916053  -19.052851 H    2165 MOH     0.0372 ****
13295 HC3   -19.483839    7.775415  -20.207556 H    2165 MOH     0.0372 ****
13296 O1    -18.836630    7.692541  -18.265134 O    2165 MOH    -0.6497 ****
13297 HO1   -18.374172    6.977290  -17.822485 H    2165 MOH     0.4215 ****
13298 HC1   -25.601443    1.414090   -9.919153 H    2166 MOH     0.0372 ****
13299 C1    -25.350296    0.893574   -8.994964 C    2166 MOH     0.1166 ****
13300 HC2   -26.017135    0.039927   -8.874049 H    2166 MOH     0.0372 ****
13301 HC3   -25.473271    1.563509   -8.144315 H    2166 MOH     0.0372 ****
13302 O1    -24.010266    0.462872   -9.091838 O    2166 MOH    -0.6497 ****
13303 HO1   -23.820317   -0.092754   -8.333112 H    2166 MOH     0.4215 ****
13304 HC1   -24.128622    8.344513  -19.940270 H    2167 MOH     0.0372 ****
13305 C1    -25.065662    8.600485  -20.433124 C    2167 MOH     0.1166 ****
13306 HC2   -25.903974    8.268579  -19.820062 H    2167 MOH     0.0372 ****
13307 HC3   -25.084137    8.101606  -21.401860 H    2167 MOH     0.0372 ****
13308 O1    -25.096261    9.984038  -20.650205 O    2167 MOH    -0.6497 ****
13309 HO1   -26.012516   10.225313  -20.802233 H    2167 MOH     0.4215 ****
13310 HC1   -27.458201    3.634553  -21.647933 H    2168 MOH     0.0372 ****
13311 C1    -27.152783    2.654349  -22.014921 C    2168 MOH     0.1166 ****
13312 HC2   -26.203619    2.733957  -22.544544 H    2168 MOH     0.0372 ****
13313 HC3   -27.919504    2.262022  -22.681723 H    2168 MOH     0.0372 ****
13314 O1    -26.999208    1.733749  -20.940826 O    2168 MOH    -0.6497 ****
13315 HO1   -26.149926    1.299781  -21.049013 H    2168 MOH     0.4215 ****
13316 HC1   -21.617149    0.986246  -14.974966 H    2169 MOH     0.0372 ****
13317 C1    -20.745927    1.489616  -15.394281 C    2169 MOH     0.1166 ****
13318 HC2   -21.043840    2.438794  -15.837636 H    2169 MOH     0.0372 ****
13319 HC3   -20.307141    0.878060  -16.183412 H    2169 MOH     0.0372 ****
13320 O1    -19.777133    1.764776  -14.408574 O    2169 MOH    -0.6497 ****
13321 HO1   -19.347007    0.926642  -14.225433 H    2169 MOH     0.4215 ****
13322 HC1   -26.064478   16.565817  -16.701721 H    2170 MOH     0.0372 ****
13323 C1    -27.079460   16.182472  -16.805666 C    2170 MOH     0.1166 ****
13324 HC2   -27.800570   16.999785  -16.784453 H    2170 MOH     0.0372 ****
13325 HC3   -27.314441   15.487634  -15.999564 H    2170 MOH     0.0372 ****
13326 O1    -27.207054   15.470487  -17.987948 O    2170 MOH    -0.6497 ****
13327 HO1   -26.486521   14.837294  -18.019768 H    2170 MOH     0.4215 ****
13328 HC1   -26.530977    2.231812  -16.628889 H    2171 MOH     0.0372 ****
13329 C1    -27.029230    1.456140  -17.208717 C    2171 MOH     0.1166 ****
13330 HC2   -26.302346    0.710679  -17.531157 H    2171 MOH     0.0372 ****
13331 HC3   -27.491688    1.930116  -18.074922 H    2171 MOH     0.0372 ****
13332 O1    -28.004375    0.825396  -16.411807 O    2171 MOH    -0.6497 ****
13333 HO1   -27.532679    0.456340  -15.662274 H    2171 MOH     0.4215 ****
13334 HC1   -23.190428    8.283684   -9.441856 H    2172 MOH     0.0372 ****
13335 C1    -23.812812    9.178156   -9.451048 C    2172 MOH     0.1166 ****
13336 HC2   -23.368829    9.965259   -8.841522 H    2172 MOH     0.0372 ****
13337 HC3   -24.784492    8.900139   -9.041633 H    2172 MOH     0.0372 ****
13338 O1    -23.992368    9.630904  -10.772631 O    2172 MOH    -0.6497 ****
13339 HO1   -23.135003    9.906471  -11.105678 H    2172 MOH     0.4215 ****
13340 HC1   -27.561547    8.463314  -11.601360 H    2173 MOH     0.0372 ****
13341 C1    -27.107750    9.342680  -11.144569 C    2173 MOH     0.1166 ****
13342 HC2   -26.270592    9.659481  -11.766823 H    2173 MOH     0.0372 ****
13343 HC3   -26.804064    9.093649  -10.127749 H    2173 MOH     0.0372 ****
13344 O1    -28.058068   10.340439  -11.179924 O    2173 MOH    -0.6497 ****
13345 HO1   -28.386003   10.395961  -12.080778 H    2173 MOH     0.4215 ****
13346 HC1   -20.198599   11.782372   -6.224520 H    2174 MOH     0.0372 ****
13347 C1    -20.451479   12.647042   -5.610751 C    2174 MOH     0.1166 ****
13348 HC2   -19.643766   12.830346   -4.902937 H    2174 MOH     0.0372 ****
13349 HC3   -21.369465   12.414341   -5.071936 H    2174 MOH     0.0372 ****
13350 O1    -20.643736   13.755436   -6.467057 O    2174 MOH    -0.6497 ****
13351 HO1   -21.329051   13.484359   -7.082240 H    2174 MOH     0.4215 ****
13352 HC1   -23.939251    4.522901   -9.758640 H    2175 MOH     0.0372 ****
13353 C1    -23.116527    3.832145   -9.943901 C    2175 MOH     0.1166 ****
13354 HC2   -22.841131    3.953395  -10.991127 H    2175 MOH     0.0372 ****
13355 HC3   -23.424832    2.792337   -9.837128 H    2175 MOH     0.0372 ****
13356 O1    -22.026490    4.142822   -9.059311 O    2175 MOH    -0.6497 ****
13357 HO1   -21.415653    3.402260   -9.046583 H    2175 MOH     0.4215 ****
13358 HC1   -28.192013    5.864405  -18.953856 H    2176 MOH     0.0372 ****
13359 C1    -27.264789    5.687633  -18.410091 C    2176 MOH     0.1166 ****
13360 HC2   -27.330607    4.762951  -17.836627 H    2176 MOH     0.0372 ****
13361 HC3   -27.041354    6.524134  -17.747532 H    2176 MOH     0.0372 ****
13362 O1    -26.261354    5.585571  -19.340644 O    2176 MOH    -0.6497 ****
13363 HO1   -25.451332    5.926459  -18.953856 H    2176 MOH     0.4215 ****
13364 HC1   -19.105098    5.480652  -10.823542 H    2177 MOH     0.0372 ****
13365 C1    -19.936482    6.164059  -10.993248 C    2177 MOH     0.1166 ****
13366 HC2   -20.858510    5.703963  -10.636159 H    2177 MOH     0.0372 ****
13367 HC3   -20.006919    6.352262  -12.064515 H    2177 MOH     0.0372 ****
13368 O1    -19.608547    7.384722  -10.341295 O    2177 MOH    -0.6497 ****
13369 HO1   -18.995401    7.187538   -9.629239 H    2177 MOH     0.4215 ****
13370 HC1   -26.598527    7.710096   -2.340382 H    2178 MOH     0.0372 ****
13371 C1    -27.489956    8.336757   -2.372202 C    2178 MOH     0.1166 ****
13372 HC2   -28.378498    7.706013   -2.412507 H    2178 MOH     0.0372 ****
13373 HC3   -27.480718    8.954845   -3.270228 H    2178 MOH     0.0372 ****
13374 O1    -27.479563    9.184280   -1.250731 O    2178 MOH    -0.6497 ****
13375 HO1   -26.723812    9.764401   -1.367403 H    2178 MOH     0.4215 ****
13376 HC1   -19.345275    8.306954  -14.801018 H    2179 MOH     0.0372 ****
13377 C1    -20.355061    7.986071  -15.056991 C    2179 MOH     0.1166 ****
13378 HC2   -21.052500    8.416773  -14.337863 H    2179 MOH     0.0372 ****
13379 HC3   -20.436467    6.899723  -15.022342 H    2179 MOH     0.0372 ****
13380 O1    -20.710131    8.445351  -16.329076 O    2179 MOH    -0.6497 ****
13381 HO1   -20.111419    8.037919  -16.958401 H    2179 MOH     0.4215 ****
13382 HC1   -24.941532    8.971991   -3.753889 H    2180 MOH     0.0372 ****
13383 C1    -24.716942   10.037927   -3.703684 C    2180 MOH     0.1166 ****
13384 HC2   -25.076054   10.585796   -4.574840 H    2180 MOH     0.0372 ****
13385 HC3   -23.630946   10.084468   -3.775809 H    2180 MOH     0.0372 ****
13386 O1    -25.077786   10.636011   -2.437256 O    2180 MOH    -0.6497 ****
13387 HO1   -25.149955   11.584780   -2.563121 H    2180 MOH     0.4215 ****
13388 HC1   -25.854900   -4.478974  -12.386248 H    2181 MOH     0.0372 ****
13389 C1    -25.273508   -3.721673  -11.859454 C    2181 MOH     0.1166 ****
13390 HC2   -24.219844   -3.965806  -11.996632 H    2181 MOH     0.0372 ****
13391 HC3   -25.503293   -3.711059  -10.794551 H    2181 MOH     0.0372 ****
13392 O1    -25.401680   -2.461411  -12.411704 O    2181 MOH    -0.6497 ****
13393 HO1   -24.603204   -1.984985  -12.170581 H    2181 MOH     0.4215 ****
13394 HC1   -23.542034   15.415374  -13.526812 H    2182 MOH     0.0372 ****
13395 C1    -24.034514   15.851791  -14.395846 C    2182 MOH     0.1166 ****
13396 HC2   -24.976750   16.339240  -14.145530 H    2182 MOH     0.0372 ****
13397 HC3   -24.286816   15.017332  -15.050627 H    2182 MOH     0.0372 ****
13398 O1    -23.196779   16.776882  -15.095882 O    2182 MOH    -0.6497 ****
13399 HO1   -23.737756   17.476619  -15.467820 H    2182 MOH     0.4215 ****
13400 HC1   -25.634352   -4.801490  -17.048910 H    2183 MOH     0.0372 ****
13401 C1    -25.667261   -3.716366  -17.147905 C    2183 MOH     0.1166 ****
13402 HC2   -25.222124   -3.247289  -16.270386 H    2183 MOH     0.0372 ****
13403 HC3   -26.704759   -3.390584  -17.222859 H    2183 MOH     0.0372 ****
13404 O1    -24.981369   -3.339145  -18.313217 O    2183 MOH    -0.6497 ****
13405 HO1   -24.879755   -2.385885  -18.272912 H    2183 MOH     0.4215 ****
13406 HC1   -17.200996    4.015448  -15.865921 H    2184 MOH     0.0372 ****
13407 C1    -18.106859    4.340006  -16.377159 C    2184 MOH     0.1166 ****
13408 HC2   -18.992514    3.947271  -15.877942 H    2184 MOH     0.0372 ****
13409 HC3   -18.099353    3.991770  -17.410242 H    2184 MOH     0.0372 ****
13410 O1    -18.199812    5.732132  -16.363017 O    2184 MOH    -0.6497 ****
13411 HO1   -17.929612    6.017498  -15.486912 H    2184 MOH     0.4215 ****
13412 HC1   -24.666713    8.579256  -13.881072 H    2185 MOH     0.0372 ****
13413 C1    -24.003337    7.757452  -13.611664 C    2185 MOH     0.1166 ****
13414 HC2   -22.987201    8.143655  -13.533883 H    2185 MOH     0.0372 ****
13415 HC3   -24.017194    6.974840  -14.370390 H    2185 MOH     0.0372 ****
13416 O1    -24.381502    7.330425  -12.324730 O    2185 MOH    -0.6497 ****
13417 HO1   -24.327808    8.099564  -11.753388 H    2185 MOH     0.4215 ****
13418 HC1   -20.886801   14.778506   -9.777731 H    2186 MOH     0.0372 ****
13419 C1    -21.226283   14.032637  -10.496859 C    2186 MOH     0.1166 ****
13420 HC2   -21.732619   13.195320  -10.015319 H    2186 MOH     0.0372 ****
13421 HC3   -20.339473   13.635819  -10.991834 H    2186 MOH     0.0372 ****
13422 O1    -22.067482   14.653174  -11.451453 O    2186 MOH    -0.6497 ****
13423 HO1   -21.538052   15.338215  -11.867232 H    2186 MOH     0.4215 ****
13424 HC1   -27.518246   12.274720  -15.614898 H    2187 MOH     0.0372 ****
13425 C1    -26.861798   12.550287  -14.789704 C    2187 MOH     0.1166 ****
13426 HC2   -27.408549   12.514361  -13.846424 H    2187 MOH     0.0372 ****
13427 HC3   -26.515388   13.572949  -14.940318 H    2187 MOH     0.0372 ****
13428 O1    -25.742894   11.678269  -14.724651 O    2187 MOH    -0.6497 ****
13429 HO1   -25.137831   12.004867  -14.054313 H    2187 MOH     0.4215 ****
13430 HC1   -23.741798   16.989579   -7.847330 H    2188 MOH     0.0372 ****
13431 C1    -24.053567   16.570716   -6.889907 C    2188 MOH     0.1166 ****
13432 HC2   -24.580688   17.316994   -6.297352 H    2188 MOH     0.0372 ****
13433 HC3   -23.160983   16.237178   -6.361699 H    2188 MOH     0.0372 ****
13434 O1    -24.868208   15.456607   -7.116889 O    2188 MOH    -0.6497 ****
13435 HO1   -25.554100   15.697882   -7.742678 H    2188 MOH     0.4215 ****
13436 HC1   -28.904464   13.913837   -9.055068 H    2189 MOH     0.0372 ****
13437 C1    -28.322495   14.156336   -9.944609 C    2189 MOH     0.1166 ****
13438 HC2   -28.358868   13.334532  -10.659494 H    2189 MOH     0.0372 ****
13439 HC3   -27.295389   14.299631   -9.607319 H    2189 MOH     0.0372 ****
13440 O1    -28.788416   15.400677  -10.476353 O    2189 MOH    -0.6497 ****
13441 HO1   -28.372724   16.077961   -9.938245 H    2189 MOH     0.4215 ****
13442 HC1   -30.663650   -2.282598  -15.999564 H    2190 MOH     0.0372 ****
13443 C1    -29.628461   -1.978453  -16.155835 C    2190 MOH     0.1166 ****
13444 HC2   -29.039564   -2.881090  -16.323419 H    2190 MOH     0.0372 ****
13445 HC3   -29.255493   -1.421602  -15.297407 H    2190 MOH     0.0372 ****
13446 O1    -29.630770   -1.246872  -17.332460 O    2190 MOH    -0.6497 ****
13447 HO1   -28.993376   -0.537745  -17.222859 H    2190 MOH     0.4215 ****
13448 HC1   -17.601100    2.909504  -11.428826 H    2191 MOH     0.0372 ****
13449 C1    -17.217162    3.506363  -12.256141 C    2191 MOH     0.1166 ****
13450 HC2   -16.529538    2.889091  -12.834554 H    2191 MOH     0.0372 ****
13451 HC3   -16.716022    4.368175  -11.814199 H    2191 MOH     0.0372 ****
13452 O1    -18.282374    3.946046  -13.043150 O    2191 MOH    -0.6497 ****
13453 HO1   -18.811804    3.189970  -13.304780 H    2191 MOH     0.4215 ****
13454 HC1   -27.134885   11.905663   -6.828389 H    2192 MOH     0.0372 ****
13455 C1    -27.071377   10.982614   -7.404681 C    2192 MOH     0.1166 ****
13456 HC2   -26.039652   10.778490   -7.690352 H    2192 MOH     0.0372 ****
13457 HC3   -27.688564   11.094474   -8.295636 H    2192 MOH     0.0372 ****
13458 O1    -27.589260    9.929333   -6.639592 O    2192 MOH    -0.6497 ****
13459 HO1   -27.339267    9.104672   -7.063856 H    2192 MOH     0.4215 ****
13460 HC1   -17.709065    8.366150  -12.693133 H    2193 MOH     0.0372 ****
13461 C1    -17.068783    7.490866  -12.584238 C    2193 MOH     0.1166 ****
13462 HC2   -17.218894    7.089966  -11.581561 H    2193 MOH     0.0372 ****
13463 HC3   -16.030130    7.803584  -12.690304 H    2193 MOH     0.0372 ****
13464 O1    -17.448102    6.549037  -13.587623 O    2193 MOH    -0.6497 ****
13465 HO1   -17.519116    5.675794  -13.195178 H    2193 MOH     0.4215 ****
13466 HC1   -19.573329   10.579673   -8.272301 H    2194 MOH     0.0372 ****
13467 C1    -18.714809   10.941381   -8.837986 C    2194 MOH     0.1166 ****
13468 HC2   -19.062951   11.460673   -9.730355 H    2194 MOH     0.0372 ****
13469 HC3   -18.085497   10.100797   -9.131436 H    2194 MOH     0.0372 ****
13470 O1    -17.965408   11.830954   -8.042491 O    2194 MOH    -0.6497 ****
13471 HO1   -17.797977   11.412499   -7.194670 H    2194 MOH     0.4215 ****
13472 HC1   -18.774276   11.900764  -18.204323 H    2195 MOH     0.0372 ****
13473 C1    -19.221145   12.314728  -19.108005 C    2195 MOH     0.1166 ****
13474 HC2   -20.248828   12.633570  -18.936178 H    2195 MOH     0.0372 ****
13475 HC3   -19.190545   11.542322  -19.877338 H    2195 MOH     0.0372 ****
13476 O1    -18.410545   13.379031  -19.496207 O    2195 MOH    -0.6497 ****
13477 HO1   -18.228680   13.925267  -18.728289 H    2195 MOH     0.4215 ****
13478 HC1   -26.991702   14.727884   -2.971122 H    2196 MOH     0.0372 ****
13479 C1    -26.554071   13.824430   -3.396093 C    2196 MOH     0.1166 ****
13480 HC2   -26.310429   14.019573   -4.439782 H    2196 MOH     0.0372 ****
13481 HC3   -27.259593   12.998136   -3.302755 H    2196 MOH     0.0372 ****
13482 O1    -25.417846   13.526817   -2.648681 O    2196 MOH    -0.6497 ****
13483 HO1   -24.790266   14.252683   -2.696764 H    2196 MOH     0.4215 ****
13484 HC1   -25.900510   -6.354875  -13.886022 H    2197 MOH     0.0372 ****
13485 C1    -25.062775   -6.126664  -14.545752 C    2197 MOH     0.1166 ****
13486 HC2   -24.705395   -5.125231  -14.310286 H    2197 MOH     0.0372 ****
13487 HC3   -25.413227   -6.171571  -15.576714 H    2197 MOH     0.0372 ****
13488 O1    -23.981975   -7.068493  -14.341398 O    2197 MOH    -0.6497 ****
13489 HO1   -23.148859   -6.680249  -14.619291 H    2197 MOH     0.4215 ****
13490 HC1   -25.010814   12.513953   -6.773235 H    2198 MOH     0.0372 ****
13491 C1    -24.085321   12.813607   -6.279674 C    2198 MOH     0.1166 ****
13492 HC2   -23.641339   11.959552   -5.767729 H    2198 MOH     0.0372 ****
13493 HC3   -24.331272   13.565601   -5.530141 H    2198 MOH     0.0372 ****
13494 O1    -23.203130   13.312895   -7.305686 O    2198 MOH    -0.6497 ****
13495 HO1   -23.393655   14.251050   -7.380639 H    2198 MOH     0.4215 ****
13496 HC1   -26.593908   16.382922  -11.425290 H    2199 MOH     0.0372 ****
13497 C1    -25.648208   16.725851  -11.005269 C    2199 MOH     0.1166 ****
13498 HC2   -25.761946   17.700339  -10.529386 H    2199 MOH     0.0372 ****
13499 HC3   -24.918438   16.839344  -11.807128 H    2199 MOH     0.0372 ****
13500 O1    -25.206535   15.803618  -10.032997 O    2199 MOH    -0.6497 ****
13501 HO1   -24.375151   15.415374  -10.315133 H    2199 MOH     0.4215 ****
13502 HC1   -26.675892    8.317161  -16.354532 H    2200 MOH     0.0372 ****
13503 C1    -25.894159    8.990362  -16.705964 C    2200 MOH     0.1166 ****
13504 HC2   -25.334707    8.555578  -17.533986 H    2200 MOH     0.0372 ****
13505 HC3   -25.208845    9.195303  -15.884306 H    2200 MOH     0.0372 ****
13506 O1    -26.468046   10.189796  -17.151441 O    2200 MOH    -0.6497 ****
13507 HO1   -26.272901   10.833195  -16.465547 H    2200 MOH     0.4215 ****
13508 HC1   -27.277606   20.517089  -11.991683 H    2201 MOH     0.0372 ****
13509 C1    -28.078391   20.123130  -11.365893 C    2201 MOH     0.1166 ****
13510 HC2   -28.644194   19.392774  -11.945014 H    2201 MOH     0.0372 ****
13511 HC3   -28.751004   20.900026  -11.004562 H    2201 MOH     0.0372 ****
13512 O1    -27.581292   19.382159  -10.321497 O    2201 MOH    -0.6497 ****
13513 HO1   -27.036851   19.978202   -9.802480 H    2201 MOH     0.4215 ****
13514 HC1   -15.168262   21.756123   -7.485291 H    2202 MOH     0.0372 ****
13515 C1    -15.107063   22.535877   -6.727273 C    2202 MOH     0.1166 ****
13516 HC2   -14.746796   22.090070   -5.799549 H    2202 MOH     0.0372 ****
13517 HC3   -16.100105   22.961272   -6.581609 H    2202 MOH     0.0372 ****
13518 O1    -14.235841   23.558539   -7.155072 O    2202 MOH    -0.6497 ****
13519 HO1   -13.349031   23.198464   -7.221540 H    2202 MOH     0.4215 ****
13520 HC1    -8.909785   26.505275  -13.265889 H    2203 MOH     0.0372 ****
13521 C1     -8.476195   26.698377  -12.285132 C    2203 MOH     0.1166 ****
13522 HC2    -8.190406   27.749208  -12.234220 H    2203 MOH     0.0372 ****
13523 HC3    -7.588230   26.079064  -12.158560 H    2203 MOH     0.0372 ****
13524 O1     -9.430555   26.383617  -11.277505 O    2203 MOH    -0.6497 ****
13525 HO1    -9.229637   25.492003  -10.984763 H    2203 MOH     0.4215 ****
13526 HC1   -15.547003   15.651586  -20.898400 H    2204 MOH     0.0372 ****
13527 C1    -15.734065   14.665667  -20.473429 C    2204 MOH     0.1166 ****
13528 HC2   -16.126086   14.760380  -19.460852 H    2204 MOH     0.0372 ****
13529 HC3   -14.776818   14.149232  -20.404839 H    2204 MOH     0.0372 ****
13530 O1    -16.575264   13.861826  -21.322664 O    2204 MOH    -0.6497 ****
13531 HO1   -17.291178   13.515631  -20.785263 H    2204 MOH     0.4215 ****
13532 HC1   -12.916596   16.123521  -14.261495 H    2205 MOH     0.0372 ****
13533 C1    -13.765300   16.558306  -13.733287 C    2205 MOH     0.1166 ****
13534 HC2   -13.901555   17.585458  -14.071284 H    2205 MOH     0.0372 ****
13535 HC3   -13.600756   16.546058  -12.655656 H    2205 MOH     0.0372 ****
13536 O1    -14.930971   15.860201  -14.067041 O    2205 MOH    -0.6497 ****
13537 HO1   -14.903835   15.059626  -13.537418 H    2205 MOH     0.4215 ****
13538 HC1    -4.840043   24.893919  -17.881175 H    2206 MOH     0.0372 ****
13539 C1     -5.034610   25.635298  -17.106186 C    2206 MOH     0.1166 ****
13540 HC2    -6.098666   25.677348  -16.873548 H    2206 MOH     0.0372 ****
13541 HC3    -4.733233   26.623667  -17.453375 H    2206 MOH     0.0372 ****
13542 O1     -4.364883   25.305025  -15.894912 O    2206 MOH    -0.6497 ****
13543 HO1    -4.582544   24.410553  -15.622676 H    2206 MOH     0.4215 ****
13544 HC1   -14.022221   23.199280  -23.875319 H    2207 MOH     0.0372 ****
13545 C1    -14.814346   22.666925  -23.349232 C    2207 MOH     0.1166 ****
13546 HC2   -14.787210   22.924529  -22.290693 H    2207 MOH     0.0372 ****
13547 HC3   -14.648646   21.599355  -23.491360 H    2207 MOH     0.0372 ****
13548 O1    -16.042947   23.082521  -23.905018 O    2207 MOH    -0.6497 ****
13549 HO1   -16.737500   22.723671  -23.347111 H    2207 MOH     0.4215 ****
13550 HC1    -9.957098   29.258093  -16.352410 H    2208 MOH     0.0372 ****
13551 C1     -9.908601   28.170520  -16.403322 C    2208 MOH     0.1166 ****
13552 HC2   -10.286765   27.815752  -17.361452 H    2208 MOH     0.0372 ****
13553 HC3   -10.515396   27.723896  -15.615605 H    2208 MOH     0.0372 ****
13554 O1     -8.572035   27.736144  -16.329783 O    2208 MOH    -0.6497 ****
13555 HO1    -8.604366   26.776760  -16.308570 H    2208 MOH     0.4215 ****
13556 HC1   -10.760192   23.676523  -23.430549 H    2209 MOH     0.0372 ****
13557 C1    -10.561584   24.637131  -22.956080 C    2209 MOH     0.1166 ****
13558 HC2    -9.496950   24.854319  -23.039519 H    2209 MOH     0.0372 ****
13559 HC3   -10.790792   24.602022  -21.891178 H    2209 MOH     0.0372 ****
13560 O1    -11.354863   25.632849  -23.607326 O    2209 MOH    -0.6497 ****
13561 HO1   -11.307520   26.408929  -23.043762 H    2209 MOH     0.4215 ****
13562 HC1   -25.185289   22.389724  -14.984866 H    2210 MOH     0.0372 ****
13563 C1    -24.270766   22.695910  -15.492569 C    2210 MOH     0.1166 ****
13564 HC2   -23.675518   23.350332  -14.855465 H    2210 MOH     0.0372 ****
13565 HC3   -24.546162   23.242147  -16.394837 H    2210 MOH     0.0372 ****
13566 O1    -23.568708   21.556489  -15.890670 O    2210 MOH    -0.6497 ****
13567 HO1   -22.633978   21.755306  -15.800867 H    2210 MOH     0.4215 ****
13568 HC1   -11.918934   18.209262  -18.418576 H    2211 MOH     0.0372 ****
13569 C1    -11.871592   18.932678  -17.603989 C    2211 MOH     0.1166 ****
13570 HC2   -12.664871   19.660176  -17.775109 H    2211 MOH     0.0372 ****
13571 HC3   -10.910881   19.446254  -17.650658 H    2211 MOH     0.0372 ****
13572 O1    -12.056921   18.290911  -16.309984 O    2211 MOH    -0.6497 ****
13573 HO1   -12.248601   18.966562  -15.654496 H    2211 MOH     0.4215 ****
13574 HC1    -5.161049   26.923730  -14.099568 H    2212 MOH     0.0372 ****
13575 C1     -5.078488   27.863517  -13.553682 C    2212 MOH     0.1166 ****
13576 HC2    -5.905254   28.519164  -13.826625 H    2212 MOH     0.0372 ****
13577 HC3    -4.121242   28.325654  -13.798341 H    2212 MOH     0.0372 ****
13578 O1     -5.119480   27.505484  -12.212300 O    2212 MOH    -0.6497 ****
13579 HO1    -4.895468   28.248495  -11.648029 H    2212 MOH     0.4215 ****
13580 HC1   -17.179173   20.893903   -5.406397 H    2213 MOH     0.0372 ****
13581 C1    -16.879528   19.846746   -5.421247 C    2213 MOH     0.1166 ****
13582 HC2   -16.245597   19.658135   -6.288159 H    2213 MOH     0.0372 ****
13583 HC3   -17.747285   19.192732   -5.500443 H    2213 MOH     0.0372 ****
13584 O1    -16.174583   19.535660   -4.227650 O    2213 MOH    -0.6497 ****
13585 HO1   -15.740416   18.687321   -4.346444 H    2213 MOH     0.4215 ****
13586 HC1   -10.373368   15.546258  -17.814000 H    2214 MOH     0.0372 ****
13587 C1    -11.053486   14.977568  -17.179725 C    2214 MOH     0.1166 ****
13588 HC2   -10.698993   15.014719  -16.149471 H    2214 MOH     0.0372 ****
13589 HC3   -11.108334   13.941026  -17.511358 H    2214 MOH     0.0372 ****
13590 O1    -12.286129   15.600555  -17.261750 O    2214 MOH    -0.6497 ****
13591 HO1   -12.183938   16.493394  -16.925874 H    2214 MOH     0.4215 ****
13592 HC1   -16.505405   22.009645  -12.830311 H    2215 MOH     0.0372 ****
13593 C1    -16.645701   21.855327  -13.899457 C    2215 MOH     0.1166 ****
13594 HC2   -16.842000   22.809812  -14.388775 H    2215 MOH     0.0372 ****
13595 HC3   -17.479972   21.176410  -14.075526 H    2215 MOH     0.0372 ****
13596 O1    -15.470216   21.300926  -14.451000 O    2215 MOH    -0.6497 ****
13597 HO1   -14.823584   21.200089  -13.748843 H    2215 MOH     0.4215 ****
13598 HC1   -19.049210   21.803480  -20.199071 H    2216 MOH     0.0372 ****
13599 C1    -19.210291   20.790616  -19.830669 C    2216 MOH     0.1166 ****
13600 HC2   -19.961423   20.835523  -19.042952 H    2216 MOH     0.0372 ****
13601 HC3   -18.285376   20.390124  -19.415597 H    2216 MOH     0.0372 ****
13602 O1    -19.661779   19.943909  -20.887086 O    2216 MOH    -0.6497 ****
13603 HO1   -19.257056   19.085771  -20.737179 H    2216 MOH     0.4215 ****
13604 HC1   -10.043701   15.920622  -12.584945 H    2217 MOH     0.0372 ****
13605 C1    -10.209978   16.007579  -11.510850 C    2217 MOH     0.1166 ****
13606 HC2   -10.137809   17.063717  -11.251342 H    2217 MOH     0.0372 ****
13607 HC3    -9.423049   15.453586  -10.998198 H    2217 MOH     0.0372 ****
13608 O1    -11.535574   15.488695  -11.276798 O    2217 MOH    -0.6497 ****
13609 HO1   -11.846766   15.837339  -10.438169 H    2217 MOH     0.4215 ****
13610 HC1   -10.450155   22.058635  -13.766521 H    2218 MOH     0.0372 ****
13611 C1    -10.466898   21.051486  -14.184421 C    2218 MOH     0.1166 ****
13612 HC2    -9.965181   20.392982  -13.476607 H    2218 MOH     0.0372 ****
13613 HC3    -9.915529   21.022909  -15.124873 H    2218 MOH     0.0372 ****
13614 O1    -11.809815   20.615885  -14.333620 O    2218 MOH    -0.6497 ****
13615 HO1   -12.301718   20.876756  -13.550853 H    2218 MOH     0.4215 ****
13616 HC1   -16.835072   17.521363  -12.227856 H    2219 MOH     0.0372 ****
13617 C1    -17.020979   18.107200  -13.128003 C    2219 MOH     0.1166 ****
13618 HC2   -17.003081   17.483396  -14.021786 H    2219 MOH     0.0372 ****
13619 HC3   -16.273310   18.892669  -13.236898 H    2219 MOH     0.0372 ****
13620 O1    -18.263436   18.695485  -12.998603 O    2219 MOH    -0.6497 ****
13621 HO1   -18.561926   18.806121  -13.904407 H    2219 MOH     0.4215 ****
13622 HC1   -15.650349   21.096394  -10.808693 H    2220 MOH     0.0372 ****
13623 C1    -14.896330   20.342767  -11.036381 C    2220 MOH     0.1166 ****
13624 HC2   -15.382459   19.453194  -11.435897 H    2220 MOH     0.0372 ****
13625 HC3   -14.407314   20.053319  -10.106536 H    2220 MOH     0.0372 ****
13626 O1    -13.962177   20.884921  -11.981076 O    2220 MOH    -0.6497 ****
13627 HO1   -13.745671   21.782659  -11.721568 H    2220 MOH     0.4215 ****
13628 HC1   -19.713740   14.466850  -13.543075 H    2221 MOH     0.0372 ****
13629 C1    -20.120772   15.467466  -13.688032 C    2221 MOH     0.1166 ****
13630 HC2   -21.166354   15.421742  -13.993502 H    2221 MOH     0.0372 ****
13631 HC3   -19.564207   15.925113  -14.504740 H    2221 MOH     0.0372 ****
13632 O1    -19.966042   16.291311  -12.531205 O    2221 MOH    -0.6497 ****
13633 HO1   -19.683141   17.171495  -12.791421 H    2221 MOH     0.4215 ****
13634 HC1   -20.307834   18.872257  -11.320638 H    2222 MOH     0.0372 ****
13635 C1    -20.219499   19.858177  -10.864555 C    2222 MOH     0.1166 ****
13636 HC2   -20.820521   19.890020   -9.956629 H    2222 MOH     0.0372 ****
13637 HC3   -20.571683   20.593432  -11.587925 H    2222 MOH     0.0372 ****
13638 O1    -18.879469   20.061892  -10.556963 O    2222 MOH    -0.6497 ****
13639 HO1   -18.394495   19.595265  -11.240735 H    2222 MOH     0.4215 ****
13640 HC1   -18.344265   14.034923  -10.506759 H    2223 MOH     0.0372 ****
13641 C1    -17.268085   14.043088  -10.676464 C    2223 MOH     0.1166 ****
13642 HC2   -16.847774   14.903267  -10.156741 H    2223 MOH     0.0372 ****
13643 HC3   -17.064280   14.103509  -11.745610 H    2223 MOH     0.0372 ****
13644 O1    -16.674568   12.898360  -10.175833 O    2223 MOH    -0.6497 ****
13645 HO1   -17.136449   12.637081   -9.376802 H    2223 MOH     0.4215 ****
13646 HC1   -17.034835   24.960872  -19.323673 H    2224 MOH     0.0372 ****
13647 C1    -17.020401   25.668366  -20.153109 C    2224 MOH     0.1166 ****
13648 HC2   -18.011134   26.099476  -20.294531 H    2224 MOH     0.0372 ****
13649 HC3   -16.681497   25.175202  -21.063863 H    2224 MOH     0.0372 ****
13650 O1    -16.143406   26.720014  -19.846225 O    2224 MOH    -0.6497 ****
13651 HO1   -15.947107   26.726954  -18.906480 H    2224 MOH     0.4215 ****
13652 HC1   -10.903375   21.126196   -5.994003 H    2225 MOH     0.0372 ****
13653 C1    -10.828320   22.168045   -6.303716 C    2225 MOH     0.1166 ****
13654 HC2    -9.789667   22.392582   -6.546961 H    2225 MOH     0.0372 ****
13655 HC3   -11.190318   22.769395   -5.468623 H    2225 MOH     0.0372 ****
13656 O1    -11.716284   22.325629   -7.379932 O    2225 MOH    -0.6497 ****
13657 HO1   -11.349090   21.805113   -8.097646 H    2225 MOH     0.4215 ****
13658 HC1   -21.178478   17.213544   -5.445288 H    2226 MOH     0.0372 ****
13659 C1    -20.186013   17.234365   -5.895715 C    2226 MOH     0.1166 ****
13660 HC2   -19.662934   18.145575   -5.605801 H    2226 MOH     0.0372 ****
13661 HC3   -20.246057   17.178843   -6.981831 H    2226 MOH     0.0372 ****
13662 O1    -19.451046   16.169653   -5.447410 O    2226 MOH    -0.6497 ****
13663 HO1   -19.897915   15.373569   -5.742980 H    2226 MOH     0.4215 ****
13664 HC1   -11.565019   23.922288  -17.312661 H    2227 MOH     0.0372 ****
13665 C1    -11.604278   22.852678  -17.517722 C    2227 MOH     0.1166 ****
13666 HC2   -12.382547   22.424425  -16.886276 H    2227 MOH     0.0372 ****
13667 HC3   -10.635485   22.416260  -17.273770 H    2227 MOH     0.0372 ****
13668 O1    -11.892953   22.560780  -18.885974 O    2227 MOH    -0.6497 ****
13669 HO1   -11.463405   21.746325  -19.158210 H    2227 MOH     0.4215 ****
13670 HC1    -7.403478   22.602422  -19.559139 H    2228 MOH     0.0372 ****
13671 C1     -7.925980   23.531595  -19.331451 C    2228 MOH     0.1166 ****
13672 HC2    -8.958282   23.318489  -19.052851 H    2228 MOH     0.0372 ****
13673 HC3    -7.885565   24.177852  -20.207556 H    2228 MOH     0.0372 ****
13674 O1     -7.238356   24.094977  -18.265134 O    2228 MOH    -0.6497 ****
13675 HO1    -6.775898   23.379726  -17.822485 H    2228 MOH     0.4215 ****
13676 HC1   -14.003169   17.816527   -9.919153 H    2229 MOH     0.0372 ****
13677 C1    -13.752021   17.296010   -8.994964 C    2229 MOH     0.1166 ****
13678 HC2   -14.418861   16.442363   -8.874049 H    2229 MOH     0.0372 ****
13679 HC3   -13.874997   17.965946   -8.144315 H    2229 MOH     0.0372 ****
13680 O1    -12.411991   16.865308   -9.091838 O    2229 MOH    -0.6497 ****
13681 HO1   -12.222043   16.309682   -8.333112 H    2229 MOH     0.4215 ****
13682 HC1   -12.530348   24.746950  -19.940270 H    2230 MOH     0.0372 ****
13683 C1    -13.467388   25.002921  -20.433124 C    2230 MOH     0.1166 ****
13684 HC2   -14.305700   24.671016  -19.820062 H    2230 MOH     0.0372 ****
13685 HC3   -13.485863   24.504042  -21.401860 H    2230 MOH     0.0372 ****
13686 O1    -13.497987   26.386475  -20.650205 O    2230 MOH    -0.6497 ****
13687 HO1   -14.414242   26.627750  -20.802233 H    2230 MOH     0.4215 ****
13688 HC1   -15.859927   20.036989  -21.647933 H    2231 MOH     0.0372 ****
13689 C1    -15.554509   19.056785  -22.014921 C    2231 MOH     0.1166 ****
13690 HC2   -14.605345   19.136394  -22.544544 H    2231 MOH     0.0372 ****
13691 HC3   -16.321230   18.664458  -22.681723 H    2231 MOH     0.0372 ****
13692 O1    -15.400934   18.136185  -20.940826 O    2231 MOH    -0.6497 ****
13693 HO1   -14.551651   17.702217  -21.049013 H    2231 MOH     0.4215 ****
13694 HC1   -10.018875   17.388683  -14.974966 H    2232 MOH     0.0372 ****
13695 C1     -9.147653   17.892053  -15.394281 C    2232 MOH     0.1166 ****
13696 HC2    -9.445566   18.841230  -15.837636 H    2232 MOH     0.0372 ****
13697 HC3    -8.708867   17.280497  -16.183412 H    2232 MOH     0.0372 ****
13698 O1     -8.178859   18.167212  -14.408574 O    2232 MOH    -0.6497 ****
13699 HO1    -7.748733   17.329078  -14.225433 H    2232 MOH     0.4215 ****
13700 HC1   -20.987375   18.974319  -15.812181 H    2233 MOH     0.0372 ****
13701 C1    -20.130587   18.716306  -16.435849 C    2233 MOH     0.1166 ****
13702 HC2   -19.944680   19.509532  -17.159219 H    2233 MOH     0.0372 ****
13703 HC3   -20.376538   17.812444  -16.993049 H    2233 MOH     0.0372 ****
13704 O1    -18.967226   18.525654  -15.634697 O    2233 MOH    -0.6497 ****
13705 HO1   -18.270942   18.177827  -16.196140 H    2233 MOH     0.4215 ****
13706 HC1   -14.932703   18.634248  -16.628889 H    2234 MOH     0.0372 ****
13707 C1    -15.430956   17.858576  -17.208717 C    2234 MOH     0.1166 ****
13708 HC2   -14.704072   17.113115  -17.531157 H    2234 MOH     0.0372 ****
13709 HC3   -15.893414   18.332553  -18.074922 H    2234 MOH     0.0372 ****
13710 O1    -16.406101   17.227833  -16.411807 O    2234 MOH    -0.6497 ****
13711 HO1   -15.934405   16.858776  -15.662274 H    2234 MOH     0.4215 ****
13712 HC1   -11.592154   24.686121   -9.441856 H    2235 MOH     0.0372 ****
13713 C1    -12.214538   25.580593   -9.451048 C    2235 MOH     0.1166 ****
13714 HC2   -11.770555   26.367696   -8.841522 H    2235 MOH     0.0372 ****
13715 HC3   -13.186218   25.302576   -9.041633 H    2235 MOH     0.0372 ****
13716 O1    -12.394094   26.033340  -10.772631 O    2235 MOH    -0.6497 ****
13717 HO1   -11.536728   26.308908  -11.105678 H    2235 MOH     0.4215 ****
13718 HC1   -15.963273   24.865750  -11.601360 H    2236 MOH     0.0372 ****
13719 C1    -15.509476   25.745117  -11.144569 C    2236 MOH     0.1166 ****
13720 HC2   -14.672318   26.061918  -11.766823 H    2236 MOH     0.0372 ****
13721 HC3   -15.205789   25.496085  -10.127749 H    2236 MOH     0.0372 ****
13722 O1    -16.459794   26.742876  -11.179924 O    2236 MOH    -0.6497 ****
13723 HO1   -16.787729   26.798398  -12.080778 H    2236 MOH     0.4215 ****
13724 HC1   -12.340977   20.925338   -9.758640 H    2237 MOH     0.0372 ****
13725 C1    -11.518253   20.234582   -9.943901 C    2237 MOH     0.1166 ****
13726 HC2   -11.242857   20.355831  -10.991127 H    2237 MOH     0.0372 ****
13727 HC3   -11.826558   19.194773   -9.837128 H    2237 MOH     0.0372 ****
13728 O1    -10.428216   20.545258   -9.059311 O    2237 MOH    -0.6497 ****
13729 HO1    -9.817379   19.804696   -9.046583 H    2237 MOH     0.4215 ****
13730 HC1   -16.593739   22.266841  -18.953856 H    2238 MOH     0.0372 ****
13731 C1    -15.666515   22.090070  -18.410091 C    2238 MOH     0.1166 ****
13732 HC2   -15.732333   21.165388  -17.836627 H    2238 MOH     0.0372 ****
13733 HC3   -15.443080   22.926571  -17.747532 H    2238 MOH     0.0372 ****
13734 O1    -14.663080   21.988008  -19.340644 O    2238 MOH    -0.6497 ****
13735 HO1   -13.853058   22.328895  -18.953856 H    2238 MOH     0.4215 ****
13736 HC1    -7.506824   21.883088  -10.823542 H    2239 MOH     0.0372 ****
13737 C1     -8.338208   22.566496  -10.993248 C    2239 MOH     0.1166 ****
13738 HC2    -9.260236   22.106400  -10.636159 H    2239 MOH     0.0372 ****
13739 HC3    -8.408645   22.754698  -12.064515 H    2239 MOH     0.0372 ****
13740 O1     -8.010273   23.787158  -10.341295 O    2239 MOH    -0.6497 ****
13741 HO1    -7.397127   23.589974   -9.629239 H    2239 MOH     0.4215 ****
13742 HC1   -15.000253   24.112532   -2.340382 H    2240 MOH     0.0372 ****
13743 C1    -15.891682   24.739193   -2.372202 C    2240 MOH     0.1166 ****
13744 HC2   -16.780224   24.108450   -2.412507 H    2240 MOH     0.0372 ****
13745 HC3   -15.882444   25.357281   -3.270228 H    2240 MOH     0.0372 ****
13746 O1    -15.881289   25.586717   -1.250731 O    2240 MOH    -0.6497 ****
13747 HO1   -15.125538   26.166837   -1.367403 H    2240 MOH     0.4215 ****
13748 HC1    -7.747001   24.709391  -14.801018 H    2241 MOH     0.0372 ****
13749 C1     -8.756787   24.388508  -15.056991 C    2241 MOH     0.1166 ****
13750 HC2    -9.454226   24.819210  -14.337863 H    2241 MOH     0.0372 ****
13751 HC3    -8.838193   23.302159  -15.022342 H    2241 MOH     0.0372 ****
13752 O1     -9.111857   24.847787  -16.329076 O    2241 MOH    -0.6497 ****
13753 HO1    -8.513145   24.440355  -16.958401 H    2241 MOH     0.4215 ****
13754 HC1   -13.343258   25.374428   -3.753889 H    2242 MOH     0.0372 ****
13755 C1    -13.118668   26.440364   -3.703684 C    2242 MOH     0.1166 ****
13756 HC2   -13.477780   26.988233   -4.574840 H    2242 MOH     0.0372 ****
13757 HC3   -12.032672   26.486904   -3.775809 H    2242 MOH     0.0372 ****
13758 O1    -13.479512   27.038448   -2.437256 O    2242 MOH    -0.6497 ****
13759 HO1   -13.551681   27.987217   -2.563121 H    2242 MOH     0.4215 ****
13760 HC1   -14.256626   11.923463  -12.386248 H    2243 MOH     0.0372 ****
13761 C1    -13.675234   12.680763  -11.859454 C    2243 MOH     0.1166 ****
13762 HC2   -12.621570   12.436631  -11.996632 H    2243 MOH     0.0372 ****
13763 HC3   -13.905019   12.691378  -10.794551 H    2243 MOH     0.0372 ****
13764 O1    -13.803406   13.941026  -12.411704 O    2243 MOH    -0.6497 ****
13765 HO1   -13.004930   14.417452  -12.170581 H    2243 MOH     0.4215 ****
13766 HC1   -19.101172   23.280522   -7.304272 H    2244 MOH     0.0372 ****
13767 C1    -18.755916   22.437489   -7.901777 C    2244 MOH     0.1166 ****
13768 HC2   -18.015753   21.905542   -7.302858 H    2244 MOH     0.0372 ****
13769 HC3   -18.314243   22.823284   -8.820309 H    2244 MOH     0.0372 ****
13770 O1    -19.808426   21.519747   -8.235532 O    2244 MOH    -0.6497 ****
13771 HO1   -19.529566   21.006579   -8.997086 H    2244 MOH     0.4215 ****
13772 HC1   -14.036078   11.600947  -17.048910 H    2245 MOH     0.0372 ****
13773 C1    -14.068987   12.686071  -17.147905 C    2245 MOH     0.1166 ****
13774 HC2   -13.623850   13.155148  -16.270386 H    2245 MOH     0.0372 ****
13775 HC3   -15.106485   13.011853  -17.222859 H    2245 MOH     0.0372 ****
13776 O1    -13.383095   13.063292  -18.313217 O    2245 MOH    -0.6497 ****
13777 HO1   -13.281481   14.016552  -18.272912 H    2245 MOH     0.4215 ****
13778 HC1    -5.602722   20.417885  -15.865921 H    2246 MOH     0.0372 ****
13779 C1     -6.508585   20.742442  -16.377159 C    2246 MOH     0.1166 ****
13780 HC2    -7.394240   20.349707  -15.877942 H    2246 MOH     0.0372 ****
13781 HC3    -6.501079   20.394207  -17.410242 H    2246 MOH     0.0372 ****
13782 O1     -6.601538   22.134569  -16.363017 O    2246 MOH    -0.6497 ****
13783 HO1    -6.331338   22.419935  -15.486912 H    2246 MOH     0.4215 ****
13784 HC1   -13.068439   24.981693  -13.881072 H    2247 MOH     0.0372 ****
13785 C1    -12.405063   24.159889  -13.611664 C    2247 MOH     0.1166 ****
13786 HC2   -11.388927   24.546092  -13.533883 H    2247 MOH     0.0372 ****
13787 HC3   -12.418920   23.377277  -14.370390 H    2247 MOH     0.0372 ****
13788 O1    -12.783228   23.732861  -12.324730 O    2247 MOH    -0.6497 ****
13789 HO1   -12.729534   24.502001  -11.753388 H    2247 MOH     0.4215 ****
13790 HC1   -18.582134   23.944742  -18.758695 H    2248 MOH     0.0372 ****
13791 C1    -19.212600   23.631207  -17.927137 C    2248 MOH     0.1166 ****
13792 HC2   -20.188900   23.318489  -18.297661 H    2248 MOH     0.0372 ****
13793 HC3   -19.382919   24.458318  -17.237001 H    2248 MOH     0.0372 ****
13794 O1    -18.610424   22.577110  -17.231344 O    2248 MOH    -0.6497 ****
13795 HO1   -19.261098   22.222751  -16.621818 H    2248 MOH     0.4215 ****
13796 HC1   -26.581899   18.609345  -15.561865 H    2249 MOH     0.0372 ****
13797 C1    -25.938154   19.393590  -15.958552 C    2249 MOH     0.1166 ****
13798 HC2   -25.904090   20.194981  -15.221040 H    2249 MOH     0.0372 ****
13799 HC3   -26.337103   19.833682  -16.873548 H    2249 MOH     0.0372 ****
13800 O1    -24.626414   18.929003  -16.189069 O    2249 MOH    -0.6497 ****
13801 HO1   -24.184163   19.716106  -16.514338 H    2249 MOH     0.4215 ****
13802 HC1   -21.876494   19.683855   -6.624035 H    2250 MOH     0.0372 ****
13803 C1    -22.269670   20.118639   -5.705504 C    2250 MOH     0.1166 ****
13804 HC2   -22.453845   21.183351   -5.846925 H    2250 MOH     0.0372 ****
13805 HC3   -21.570499   19.974527   -4.881724 H    2250 MOH     0.0372 ****
13806 O1    -23.434185   19.457685   -5.376699 O    2250 MOH    -0.6497 ****
13807 HO1   -23.858538   19.907166   -4.642015 H    2250 MOH     0.4215 ****
13808 HC1   -17.902592   16.370511  -21.761777 H    2251 MOH     0.0372 ****
13809 C1    -18.639291   16.716298  -21.036993 C    2251 MOH     0.1166 ****
13810 HC2   -18.910069   15.908374  -20.356049 H    2251 MOH     0.0372 ****
13811 HC3   -19.548041   17.015952  -21.557423 H    2251 MOH     0.0372 ****
13812 O1    -18.199350   17.797747  -20.242912 O    2251 MOH    -0.6497 ****
13813 HO1   -17.251919   17.729162  -20.107147 H    2251 MOH     0.4215 ****
13814 HC1   -19.065376   14.119839  -15.999564 H    2252 MOH     0.0372 ****
13815 C1    -18.030187   14.423984  -16.155835 C    2252 MOH     0.1166 ****
13816 HC2   -17.441290   13.521347  -16.323419 H    2252 MOH     0.0372 ****
13817 HC3   -17.657219   14.980834  -15.297407 H    2252 MOH     0.0372 ****
13818 O1    -18.032496   15.155564  -17.332460 O    2252 MOH    -0.6497 ****
13819 HO1   -17.395102   15.864692  -17.222859 H    2252 MOH     0.4215 ****
13820 HC1    -6.002826   19.311940  -11.428826 H    2253 MOH     0.0372 ****
13821 C1     -5.618888   19.908799  -12.256141 C    2253 MOH     0.1166 ****
13822 HC2    -4.931264   19.291528  -12.834554 H    2253 MOH     0.0372 ****
13823 HC3    -5.117748   20.770611  -11.814199 H    2253 MOH     0.0372 ****
13824 O1     -6.684099   20.348483  -13.043150 O    2253 MOH    -0.6497 ****
13825 HO1    -7.213530   19.592407  -13.304780 H    2253 MOH     0.4215 ****
13826 HC1    -6.110791   24.768587  -12.693133 H    2254 MOH     0.0372 ****
13827 C1     -5.470509   23.893303  -12.584238 C    2254 MOH     0.1166 ****
13828 HC2    -5.620620   23.492403  -11.581561 H    2254 MOH     0.0372 ****
13829 HC3    -4.431856   24.206021  -12.690304 H    2254 MOH     0.0372 ****
13830 O1     -5.849828   22.951474  -13.587623 O    2254 MOH    -0.6497 ****
13831 HO1    -5.920842   22.078231  -13.195178 H    2254 MOH     0.4215 ****
13832 HC1    -7.975055   26.982109   -8.272301 H    2255 MOH     0.0372 ****
13833 C1     -7.116535   27.343817   -8.837986 C    2255 MOH     0.1166 ****
13834 HC2    -7.464677   27.863109   -9.730355 H    2255 MOH     0.0372 ****
13835 HC3    -6.487223   26.503234   -9.131436 H    2255 MOH     0.0372 ****
13836 O1     -6.367134   28.233390   -8.042491 O    2255 MOH    -0.6497 ****
13837 HO1    -6.199703   27.814936   -7.194670 H    2255 MOH     0.4215 ****
13838 HC1    -7.176002   28.303201  -18.204323 H    2256 MOH     0.0372 ****
13839 C1     -7.622871   28.717164  -19.108005 C    2256 MOH     0.1166 ****
13840 HC2    -8.650554   29.036006  -18.936178 H    2256 MOH     0.0372 ****
13841 HC3    -7.592271   27.944759  -19.877338 H    2256 MOH     0.0372 ****
13842 O1     -6.812271   29.781468  -19.496207 O    2256 MOH    -0.6497 ****
13843 HO1    -6.630406   30.327704  -18.728289 H    2256 MOH     0.4215 ****
13844 HC1   -22.344148   20.189674   -1.406294 H    2257 MOH     0.0372 ****
13845 C1    -21.449833   19.747133   -0.966474 C    2257 MOH     0.1166 ****
13846 HC2   -21.384015   20.020251    0.086408 H    2257 MOH     0.0372 ****
13847 HC3   -20.559559   20.117006   -1.475591 H    2257 MOH     0.0372 ****
13848 O1    -21.501217   18.334594   -1.082439 O    2257 MOH    -0.6497 ****
13849 HO1   -20.595932   18.026367   -0.994051 H    2257 MOH     0.4215 ****
13850 HC1   -18.613311   23.932495   -3.603982 H    2258 MOH     0.0372 ****
13851 C1    -19.023807   22.975969   -3.280834 C    2258 MOH     0.1166 ****
13852 HC2   -18.244961   22.213361   -3.259621 H    2258 MOH     0.0372 ****
13853 HC3   -19.809003   22.697135   -3.982991 H    2258 MOH     0.0372 ****
13854 O1    -19.619632   23.120489   -2.025013 O    2258 MOH    -0.6497 ****
13855 HO1   -18.998981   23.569562   -1.446599 H    2258 MOH     0.4215 ****
13856 HC1   -14.302236   10.047562  -13.886022 H    2259 MOH     0.0372 ****
13857 C1    -13.464501   10.275773  -14.545752 C    2259 MOH     0.1166 ****
13858 HC2   -13.107121   11.277206  -14.310286 H    2259 MOH     0.0372 ****
13859 HC3   -13.814953   10.230865  -15.576714 H    2259 MOH     0.0372 ****
13860 O1    -12.383701    9.333944  -14.341398 O    2259 MOH    -0.6497 ****
13861 HO1   -11.550585    9.722188  -14.619291 H    2259 MOH     0.4215 ****
13862 HC1   -20.108648   20.902884  -14.270688 H    2260 MOH     0.0372 ****
13863 C1    -20.420417   21.946367  -14.306043 C    2260 MOH     0.1166 ****
13864 HC2   -19.614436   22.603646  -13.977946 H    2260 MOH     0.0372 ****
13865 HC3   -21.263348   22.069658  -13.627221 H    2260 MOH     0.0372 ****
13866 O1    -20.873637   22.292561  -15.600049 O    2260 MOH    -0.6497 ****
13867 HO1   -21.084947   23.228266  -15.570350 H    2260 MOH     0.4215 ****
13868 HC1   -24.383349   20.073732  -13.453980 H    2261 MOH     0.0372 ****
13869 C1    -23.612009   19.780609  -12.741216 C    2261 MOH     0.1166 ****
13870 HC2   -22.714230   19.524229  -13.304073 H    2261 MOH     0.0372 ****
13871 HC3   -23.942254   18.892261  -12.202401 H    2261 MOH     0.0372 ****
13872 O1    -23.351624   20.857977  -11.832584 O    2261 MOH    -0.6497 ****
13873 HO1   -24.017887   20.833073  -11.141740 H    2261 MOH     0.4215 ****
13874 HC1   -24.512676   20.684471   -7.570851 H    2262 MOH     0.0372 ****
13875 C1    -24.029434   20.533828   -8.536052 C    2262 MOH     0.1166 ****
13876 HC2   -23.573904   19.544234   -8.555851 H    2262 MOH     0.0372 ****
13877 HC3   -23.269063   21.302967   -8.674645 H    2262 MOH     0.0372 ****
13878 O1    -25.060581   20.583226   -9.522466 O    2262 MOH    -0.6497 ****
13879 HO1   -25.573268   21.384209   -9.392358 H    2262 MOH     0.4215 ****
13880 HC1   -15.077618   24.719597  -16.354532 H    2263 MOH     0.0372 ****
13881 C1    -14.295885   25.392799  -16.705964 C    2263 MOH     0.1166 ****
13882 HC2   -13.736433   24.958014  -17.533986 H    2263 MOH     0.0372 ****
13883 HC3   -13.610571   25.597739  -15.884306 H    2263 MOH     0.0372 ****
13884 O1    -14.869771   26.592232  -17.151441 O    2263 MOH    -0.6497 ****
13885 HO1   -14.674627   27.235631  -16.465547 H    2263 MOH     0.4215 ****
13886 HC1     1.224906   31.948695  -17.814000 H    2264 MOH     0.0372 ****
13887 C1      0.544788   31.380005  -17.179725 C    2264 MOH     0.1166 ****
13888 HC2     0.899281   31.417155  -16.149471 H    2264 MOH     0.0372 ****
13889 HC3     0.489940   30.343462  -17.511358 H    2264 MOH     0.0372 ****
13890 O1     -0.687855   32.002992  -17.261750 O    2264 MOH    -0.6497 ****
13891 HO1    -0.585664   32.895831  -16.925874 H    2264 MOH     0.4215 ****
13892 HC1     1.554573   32.323058  -12.584945 H    2265 MOH     0.0372 ****
13893 C1      1.388297   32.410015  -11.510850 C    2265 MOH     0.1166 ****
13894 HC2     1.460465   33.466154  -11.251342 H    2265 MOH     0.0372 ****
13895 HC3     2.175225   31.856022  -10.998198 H    2265 MOH     0.0372 ****
13896 O1      0.062700   31.891132  -11.276798 O    2265 MOH    -0.6497 ****
13897 HO1    -0.248491   32.239776  -10.438169 H    2265 MOH     0.4215 ****
13898 HC1    -2.658351   28.325899  -12.386248 H    2266 MOH     0.0372 ****
13899 C1     -2.076960   29.083200  -11.859454 C    2266 MOH     0.1166 ****
13900 HC2    -1.023296   28.839067  -11.996632 H    2266 MOH     0.0372 ****
13901 HC3    -2.306745   29.093814  -10.794551 H    2266 MOH     0.0372 ****
13902 O1     -2.205132   30.343462  -12.411704 O    2266 MOH    -0.6497 ****
13903 HO1    -1.406656   30.819888  -12.170581 H    2266 MOH     0.4215 ****
13904 HC1    -2.437804   28.003383  -17.048910 H    2267 MOH     0.0372 ****
13905 C1     -2.470713   29.088507  -17.147905 C    2267 MOH     0.1166 ****
13906 HC2    -2.025576   29.557584  -16.270386 H    2267 MOH     0.0372 ****
13907 HC3    -3.508211   29.414289  -17.222859 H    2267 MOH     0.0372 ****
13908 O1     -1.784820   29.465728  -18.313217 O    2267 MOH    -0.6497 ****
13909 HO1    -1.683207   30.418988  -18.272912 H    2267 MOH     0.4215 ****
13910 HC1    -2.703962   26.449998  -13.886022 H    2268 MOH     0.0372 ****
13911 C1     -1.866227   26.678209  -14.545752 C    2268 MOH     0.1166 ****
13912 HC2    -1.508847   27.679642  -14.310286 H    2268 MOH     0.0372 ****
13913 HC3    -2.216678   26.633302  -15.576714 H    2268 MOH     0.0372 ****
13914 O1     -0.785427   25.736380  -14.341398 O    2268 MOH    -0.6497 ****
13915 HO1     0.047689   26.124625  -14.619291 H    2268 MOH     0.4215 ****
13916 HC1   -22.775891   -7.688377  -17.608797 H    2269 MOH     0.0372 ****
13917 C1    -23.487186   -8.514263  -17.619404 C    2269 MOH     0.1166 ****
13918 HC2   -23.125188   -9.245436  -18.342774 H    2269 MOH     0.0372 ****
13919 HC3   -24.476187   -8.141941  -17.889519 H    2269 MOH     0.0372 ****
13920 O1    -23.550695   -9.087852  -16.334591 O    2269 MOH    -0.6497 ****
13921 HO1   -23.826668   -8.404036  -15.720115 H    2269 MOH     0.4215 ****
13922 HC1   -20.198599  -12.821283  -20.429446 H    2270 MOH     0.0372 ****
13923 C1    -20.451478  -11.956613  -19.815678 C    2270 MOH     0.1166 ****
13924 HC2   -19.643765  -11.773309  -19.107864 H    2270 MOH     0.0372 ****
13925 HC3   -21.369465  -12.189314  -19.276862 H    2270 MOH     0.0372 ****
13926 O1    -20.643736  -10.848219  -20.671984 O    2270 MOH    -0.6497 ****
13927 HO1   -21.329051  -11.119296  -21.287167 H    2270 MOH     0.4215 ****
13928 HC1   -24.941531  -15.631664  -17.958815 H    2271 MOH     0.0372 ****
13929 C1    -24.716942  -14.565728  -17.908611 C    2271 MOH     0.1166 ****
13930 HC2   -25.076054  -14.017858  -18.779766 H    2271 MOH     0.0372 ****
13931 HC3   -23.630946  -14.519187  -17.980736 H    2271 MOH     0.0372 ****
13932 O1    -25.077786  -13.967644  -16.642183 O    2271 MOH    -0.6497 ****
13933 HO1   -25.149955  -13.018875  -16.768048 H    2271 MOH     0.4215 ****
13934 HC1   -23.741798   -7.614076  -22.052257 H    2272 MOH     0.0372 ****
13935 C1    -24.053567   -8.032938  -21.094834 C    2272 MOH     0.1166 ****
13936 HC2   -24.580688   -7.286661  -20.502278 H    2272 MOH     0.0372 ****
13937 HC3   -23.160983   -8.366477  -20.566625 H    2272 MOH     0.0372 ****
13938 O1    -24.868208   -9.147048  -21.321815 O    2272 MOH    -0.6497 ****
13939 HO1   -25.554100   -8.905773  -21.947605 H    2272 MOH     0.4215 ****
13940 HC1   -26.991702   -9.875771  -17.176048 H    2273 MOH     0.0372 ****
13941 C1    -26.554071  -10.779225  -17.601019 C    2273 MOH     0.1166 ****
13942 HC2   -26.310429  -10.584082  -18.644709 H    2273 MOH     0.0372 ****
13943 HC3   -27.259593  -11.605519  -17.507681 H    2273 MOH     0.0372 ****
13944 O1    -25.417845  -11.076838  -16.853607 O    2273 MOH    -0.6497 ****
13945 HO1   -24.790266  -10.350972  -16.901691 H    2273 MOH     0.4215 ****
13946 HC1   -15.168262   -2.847532  -21.690218 H    2274 MOH     0.0372 ****
13947 C1    -15.107062   -2.067778  -20.932199 C    2274 MOH     0.1166 ****
13948 HC2   -14.746796   -2.513585  -20.004475 H    2274 MOH     0.0372 ****
13949 HC3   -16.100105   -1.642383  -20.786535 H    2274 MOH     0.0372 ****
13950 O1    -14.235841   -1.045116  -21.359999 O    2274 MOH    -0.6497 ****
13951 HO1   -13.349031   -1.405191  -21.426467 H    2274 MOH     0.4215 ****
13952 HC1    -8.909785    1.901620  -27.470816 H    2275 MOH     0.0372 ****
13953 C1     -8.476195    2.094722  -26.490059 C    2275 MOH     0.1166 ****
13954 HC2    -8.190406    3.145553  -26.439147 H    2275 MOH     0.0372 ****
13955 HC3    -7.588230    1.475409  -26.363486 H    2275 MOH     0.0372 ****
13956 O1     -9.430555    1.779962  -25.482431 O    2275 MOH    -0.6497 ****
13957 HO1    -9.229637    0.888348  -25.189689 H    2275 MOH     0.4215 ****
13958 HC1    -4.840042    0.290264  -32.086102 H    2276 MOH     0.0372 ****
13959 C1     -5.034610    1.031643  -31.311113 C    2276 MOH     0.1166 ****
13960 HC2    -6.098666    1.073693  -31.078474 H    2276 MOH     0.0372 ****
13961 HC3    -4.733233    2.020012  -31.658302 H    2276 MOH     0.0372 ****
13962 O1     -4.364883    0.701370  -30.099839 O    2276 MOH    -0.6497 ****
13963 HO1    -4.582544   -0.193102  -29.827603 H    2276 MOH     0.4215 ****
13964 HC1   -20.726413    5.003083  -25.618903 H    2277 MOH     0.0372 ****
13965 C1    -20.122504    5.554626  -24.898361 C    2277 MOH     0.1166 ****
13966 HC2   -19.310750    4.919392  -24.544808 H    2277 MOH     0.0372 ****
13967 HC3   -20.770869    5.840400  -24.069632 H    2277 MOH     0.0372 ****
13968 O1    -19.617900    6.678534  -25.553849 O    2277 MOH    -0.6497 ****
13969 HO1   -18.804991    6.940221  -25.114736 H    2277 MOH     0.4215 ****
13970 HC1   -22.664577   -0.318434  -21.234134 H    2278 MOH     0.0372 ****
13971 C1    -23.684755   -0.611148  -20.985940 C    2278 MOH     0.1166 ****
13972 HC2   -23.845836   -0.553585  -19.910430 H    2278 MOH     0.0372 ****
13973 HC3   -23.893179   -1.633402  -21.302723 H    2278 MOH     0.0372 ****
13974 O1    -24.570988    0.281283  -21.586980 O    2278 MOH    -0.6497 ****
13975 HO1   -24.119500    0.657688  -22.346413 H    2278 MOH     0.4215 ****
13976 HC1    -9.957098    4.654439  -30.557337 H    2279 MOH     0.0372 ****
13977 C1     -9.908600    3.566865  -30.608249 C    2279 MOH     0.1166 ****
13978 HC2   -10.286765    3.212097  -31.566378 H    2279 MOH     0.0372 ****
13979 HC3   -10.515396    3.120241  -29.820532 H    2279 MOH     0.0372 ****
13980 O1     -8.572035    3.132489  -30.534709 O    2279 MOH    -0.6497 ****
13981 HO1    -8.604366    2.173105  -30.513496 H    2279 MOH     0.4215 ****
13982 HC1   -28.065689    2.468269  -25.029883 H    2280 MOH     0.0372 ****
13983 C1    -27.025304    2.495622  -25.355859 C    2280 MOH     0.1166 ****
13984 HC2   -26.441026    1.855897  -24.693300 H    2280 MOH     0.0372 ****
13985 HC3   -26.684090    3.529306  -25.302119 H    2280 MOH     0.0372 ****
13986 O1    -26.958331    2.013480  -26.678856 O    2280 MOH    -0.6497 ****
13987 HO1   -27.553002    1.260671  -26.722697 H    2280 MOH     0.4215 ****
13988 HC1    -5.161049    2.320075  -28.304495 H    2281 MOH     0.0372 ****
13989 C1     -5.078488    3.259862  -27.758608 C    2281 MOH     0.1166 ****
13990 HC2    -5.905254    3.915509  -28.031551 H    2281 MOH     0.0372 ****
13991 HC3    -4.121241    3.721999  -28.003267 H    2281 MOH     0.0372 ****
13992 O1     -5.119480    2.901829  -26.417227 O    2281 MOH    -0.6497 ****
13993 HO1    -4.895468    3.644841  -25.852955 H    2281 MOH     0.4215 ****
13994 HC1   -17.253651    6.944303  -28.561174 H    2282 MOH     0.0372 ****
13995 C1    -17.919336    7.803258  -28.476322 C    2282 MOH     0.1166 ****
13996 HC2   -18.961453    7.483191  -28.483393 H    2282 MOH     0.0372 ****
13997 HC3   -17.784236    8.427878  -29.358791 H    2282 MOH     0.0372 ****
13998 O1    -17.693592    8.600158  -27.272826 O    2282 MOH    -0.6497 ****
13999 HO1   -17.766338    8.033101  -26.502787 H    2282 MOH     0.4215 ****
14000 HC1   -17.179173   -3.709752  -19.611324 H    2283 MOH     0.0372 ****
14001 C1    -16.879528   -4.756909  -19.626173 C    2283 MOH     0.1166 ****
14002 HC2   -16.245597   -4.945520  -20.493086 H    2283 MOH     0.0372 ****
14003 HC3   -17.747285   -5.410923  -19.705369 H    2283 MOH     0.0372 ****
14004 O1    -16.174583   -5.067994  -18.432577 O    2283 MOH    -0.6497 ****
14005 HO1   -15.740416   -5.916334  -18.551371 H    2283 MOH     0.4215 ****
14006 HC1   -19.272067   14.111919  -22.704209 H    2284 MOH     0.0372 ****
14007 C1    -19.613859   13.442391  -23.493340 C    2284 MOH     0.1166 ****
14008 HC2   -20.112112   12.566290  -23.077561 H    2284 MOH     0.0372 ****
14009 HC3   -18.741482   13.124366  -24.063975 H    2284 MOH     0.0372 ****
14010 O1    -20.395013   14.172339  -24.415407 O    2284 MOH    -0.6497 ****
14011 HO1   -20.367878   13.685299  -25.242015 H    2284 MOH     0.4215 ****
14012 HC1   -16.505405   -2.594010  -27.035238 H    2285 MOH     0.0372 ****
14013 C1    -16.645701   -2.748328  -28.104383 C    2285 MOH     0.1166 ****
14014 HC2   -16.842000   -1.793843  -28.593701 H    2285 MOH     0.0372 ****
14015 HC3   -17.479972   -3.427245  -28.280453 H    2285 MOH     0.0372 ****
14016 O1    -15.470216   -3.302729  -28.655927 O    2285 MOH    -0.6497 ****
14017 HO1   -14.823583   -3.403566  -27.953770 H    2285 MOH     0.4215 ****
14018 HC1   -13.742206    5.442358  -25.744768 H    2286 MOH     0.0372 ****
14019 C1    -13.259542    4.476442  -25.891846 C    2286 MOH     0.1166 ****
14020 HC2   -14.032614    3.722408  -26.039632 H    2286 MOH     0.0372 ****
14021 HC3   -12.694893    4.233943  -24.992406 H    2286 MOH     0.0372 ****
14022 O1    -12.351370    4.504203  -27.014732 O    2286 MOH    -0.6497 ****
14023 HO1   -11.640074    5.108411  -26.785629 H    2286 MOH     0.4215 ****
14024 HC1   -10.043700   -8.683033  -26.789872 H    2287 MOH     0.0372 ****
14025 C1    -10.209977   -8.596076  -25.715777 C    2287 MOH     0.1166 ****
14026 HC2   -10.137809   -7.539938  -25.456268 H    2287 MOH     0.0372 ****
14027 HC3    -9.423049   -9.150069  -25.203124 H    2287 MOH     0.0372 ****
14028 O1    -11.535574   -9.114960  -25.481724 O    2287 MOH    -0.6497 ****
14029 HO1   -11.846765   -8.766316  -24.643096 H    2287 MOH     0.4215 ****
14030 HC1   -11.177617    8.714060  -17.608797 H    2288 MOH     0.0372 ****
14031 C1    -11.888912    7.888173  -17.619404 C    2288 MOH     0.1166 ****
14032 HC2   -11.526913    7.157001  -18.342774 H    2288 MOH     0.0372 ****
14033 HC3   -12.877913    8.260496  -17.889519 H    2288 MOH     0.0372 ****
14034 O1    -11.952421    7.314585  -16.334591 O    2288 MOH    -0.6497 ****
14035 HO1   -12.228394    7.998400  -15.720115 H    2288 MOH     0.4215 ****
14036 HC1   -26.670234   -0.113085  -23.590921 H    2289 MOH     0.0372 ****
14037 C1    -27.061677   -0.882225  -24.255601 C    2289 MOH     0.1166 ****
14038 HC2   -26.562269   -0.848340  -25.223631 H    2289 MOH     0.0372 ****
14039 HC3   -28.133239   -0.719742  -24.380052 H    2289 MOH     0.0372 ****
14040 O1    -26.920804   -2.149019  -23.670824 O    2289 MOH    -0.6497 ****
14041 HO1   -27.367095   -2.149427  -22.821589 H    2289 MOH     0.4215 ****
14042 HC1   -10.450155   -2.545020  -27.971447 H    2290 MOH     0.0372 ****
14043 C1    -10.466898   -3.552169  -28.389347 C    2290 MOH     0.1166 ****
14044 HC2    -9.965181   -4.210673  -27.681533 H    2290 MOH     0.0372 ****
14045 HC3    -9.915529   -3.580746  -29.329799 H    2290 MOH     0.0372 ****
14046 O1    -11.809815   -3.987769  -28.538547 O    2290 MOH    -0.6497 ****
14047 HO1   -12.301717   -3.726899  -27.755780 H    2290 MOH     0.4215 ****
14048 HC1   -16.315456    1.245974  -28.839774 H    2291 MOH     0.0372 ****
14049 C1    -17.378936    1.446832  -28.971296 C    2291 MOH     0.1166 ****
14050 HC2   -17.960905    0.525824  -28.944426 H    2291 MOH     0.0372 ****
14051 HC3   -17.544058    1.917542  -29.940740 H    2291 MOH     0.0372 ****
14052 O1    -17.829269    2.337221  -27.991953 O    2291 MOH    -0.6497 ****
14053 HO1   -17.718995    3.231693  -28.322172 H    2291 MOH     0.4215 ****
14054 HC1   -12.602517    4.173522  -31.636382 H    2292 MOH     0.0372 ****
14055 C1    -13.006662    4.519308  -32.587440 C    2292 MOH     0.1166 ****
14056 HC2   -13.939660    3.995934  -32.799572 H    2292 MOH     0.0372 ****
14057 HC3   -12.285552    4.374380  -33.391421 H    2292 MOH     0.0372 ****
14058 O1    -13.253191    5.885307  -32.433291 O    2292 MOH    -0.6497 ****
14059 HO1   -12.428734    6.340912  -32.245201 H    2292 MOH     0.4215 ****
14060 HC1   -15.650349   -3.507261  -25.013620 H    2293 MOH     0.0372 ****
14061 C1    -14.896330   -4.260888  -25.241308 C    2293 MOH     0.1166 ****
14062 HC2   -15.382458   -5.150461  -25.640823 H    2293 MOH     0.0372 ****
14063 HC3   -14.407314   -4.550336  -24.311463 H    2293 MOH     0.0372 ****
14064 O1    -13.962177   -3.718734  -26.186003 O    2293 MOH    -0.6497 ****
14065 HO1   -13.745670   -2.820996  -25.926495 H    2293 MOH     0.4215 ****
14066 HC1   -20.307834   -5.731398  -25.525565 H    2294 MOH     0.0372 ****
14067 C1    -20.219499   -4.745478  -25.069481 C    2294 MOH     0.1166 ****
14068 HC2   -20.820521   -4.713635  -24.161556 H    2294 MOH     0.0372 ****
14069 HC3   -20.571683   -4.010223  -25.792851 H    2294 MOH     0.0372 ****
14070 O1    -18.879469   -4.541762  -24.761890 O    2294 MOH    -0.6497 ****
14071 HO1   -18.394495   -5.008390  -25.445662 H    2294 MOH     0.4215 ****
14072 HC1   -10.362975    6.060854  -33.303032 H    2295 MOH     0.0372 ****
14073 C1     -9.942664    6.944303  -32.822200 C    2295 MOH     0.1166 ****
14074 HC2    -9.689207    7.686090  -33.579511 H    2295 MOH     0.0372 ****
14075 HC3    -9.055854    6.661387  -32.255807 H    2295 MOH     0.0372 ****
14076 O1    -10.947831    7.440733  -31.999128 O    2295 MOH    -0.6497 ****
14077 HO1   -10.591606    7.637101  -31.130093 H    2295 MOH     0.4215 ****
14078 HC1   -16.011770    8.368682  -20.727138 H    2296 MOH     0.0372 ****
14079 C1    -16.054494    9.242741  -21.376970 C    2296 MOH     0.1166 ****
14080 HC2   -15.253709    9.942887  -21.138675 H    2296 MOH     0.0372 ****
14081 HC3   -16.993843    9.758767  -21.181808 H    2296 MOH     0.0372 ****
14082 O1    -16.053917    8.888382  -22.768556 O    2296 MOH    -0.6497 ****
14083 HO1   -15.944798    9.680792  -23.299593 H    2296 MOH     0.4215 ****
14084 HC1   -10.903375   -3.477459  -20.198930 H    2297 MOH     0.0372 ****
14085 C1    -10.828320   -2.435609  -20.508642 C    2297 MOH     0.1166 ****
14086 HC2    -9.789666   -2.211073  -20.751887 H    2297 MOH     0.0372 ****
14087 HC3   -11.190318   -1.834260  -19.673549 H    2297 MOH     0.0372 ****
14088 O1    -11.716284   -2.278026  -21.584859 O    2297 MOH    -0.6497 ****
14089 HO1   -11.349090   -2.798542  -22.302572 H    2297 MOH     0.4215 ****
14090 HC1   -21.178478   -7.390111  -19.650215 H    2298 MOH     0.0372 ****
14091 C1    -20.186013   -7.369290  -20.100642 C    2298 MOH     0.1166 ****
14092 HC2   -19.662933   -6.458080  -19.810728 H    2298 MOH     0.0372 ****
14093 HC3   -20.246057   -7.424812  -21.186758 H    2298 MOH     0.0372 ****
14094 O1    -19.451046   -8.434002  -19.652336 O    2298 MOH    -0.6497 ****
14095 HO1   -19.897915   -9.230086  -19.947907 H    2298 MOH     0.4215 ****
14096 HC1   -23.238464    4.839375  -26.644915 H    2299 MOH     0.0372 ****
14097 C1    -23.478064    4.206590  -25.790730 C    2299 MOH     0.1166 ****
14098 HC2   -24.523645    4.331106  -25.510009 H    2299 MOH     0.0372 ****
14099 HC3   -22.845865    4.514001  -24.957051 H    2299 MOH     0.0372 ****
14100 O1    -23.176110    2.856513  -26.106807 O    2299 MOH    -0.6497 ****
14101 HO1   -23.638567    2.583395  -26.902302 H    2299 MOH     0.4215 ****
14102 HC1   -14.003169   -6.787128  -24.124079 H    2300 MOH     0.0372 ****
14103 C1    -13.752021   -7.307645  -23.199891 C    2300 MOH     0.1166 ****
14104 HC2   -14.418861   -8.161292  -23.078975 H    2300 MOH     0.0372 ****
14105 HC3   -13.874997   -6.637709  -22.349241 H    2300 MOH     0.0372 ****
14106 O1    -12.411991   -7.738347  -23.296764 O    2300 MOH    -0.6497 ****
14107 HO1   -12.222043   -8.293972  -22.538039 H    2300 MOH     0.4215 ****
14108 HC1   -22.476939   -0.558892  -24.903311 H    2301 MOH     0.0372 ****
14109 C1    -23.486724   -0.159625  -24.811387 C    2301 MOH     0.1166 ****
14110 HC2   -24.099293   -0.901004  -24.298028 H    2301 MOH     0.0372 ****
14111 HC3   -23.887983    0.032251  -25.806994 H    2301 MOH     0.0372 ****
14112 O1    -23.418597    1.029194  -24.049126 O    2301 MOH    -0.6497 ****
14113 HO1   -23.084311    1.722399  -24.623297 H    2301 MOH     0.4215 ****
14114 HC1   -20.046871    2.114726  -20.218729 H    2302 MOH     0.0372 ****
14115 C1    -19.438921    2.985520  -20.466923 C    2302 MOH     0.1166 ****
14116 HC2   -18.389299    2.716076  -20.581474 H    2302 MOH     0.0372 ****
14117 HC3   -19.495502    3.707711  -19.651629 H    2302 MOH     0.0372 ****
14118 O1    -19.833829    3.547677  -21.676783 O    2302 MOH    -0.6497 ****
14119 HO1   -19.552082    2.949186  -22.372576 H    2302 MOH     0.4215 ****
14120 HC1   -14.466204    8.364599  -30.906648 H    2303 MOH     0.0372 ****
14121 C1    -15.481185    7.981254  -31.010592 C    2303 MOH     0.1166 ****
14122 HC2   -16.202296    8.798567  -30.989379 H    2303 MOH     0.0372 ****
14123 HC3   -15.716167    7.286415  -30.204491 H    2303 MOH     0.0372 ****
14124 O1    -15.608780    7.269269  -32.192875 O    2303 MOH    -0.6497 ****
14125 HO1   -14.888247    6.636076  -32.224695 H    2303 MOH     0.4215 ****
14126 HC1   -11.592154    0.082466  -23.646782 H    2304 MOH     0.0372 ****
14127 C1    -12.214538    0.976938  -23.655975 C    2304 MOH     0.1166 ****
14128 HC2   -11.770555    1.764041  -23.046449 H    2304 MOH     0.0372 ****
14129 HC3   -13.186218    0.698921  -23.246560 H    2304 MOH     0.0372 ****
14130 O1    -12.394093    1.429685  -24.977557 O    2304 MOH    -0.6497 ****
14131 HO1   -11.536728    1.705253  -25.310605 H    2304 MOH     0.4215 ****
14132 HC1   -19.851727    6.050239  -29.464857 H    2305 MOH     0.0372 ****
14133 C1    -19.670439    5.012064  -29.185550 C    2305 MOH     0.1166 ****
14134 HC2   -20.329773    4.374788  -29.774570 H    2305 MOH     0.0372 ****
14135 HC3   -19.895028    4.857338  -28.129839 H    2305 MOH     0.0372 ****
14136 O1    -18.340224    4.616471  -29.426673 O    2305 MOH    -0.6497 ****
14137 HO1   -18.160668    4.724657  -30.363590 H    2305 MOH     0.4215 ****
14138 HC1   -15.963273    0.262095  -25.806286 H    2306 MOH     0.0372 ****
14139 C1    -15.509476    1.141462  -25.349495 C    2306 MOH     0.1166 ****
14140 HC2   -14.672318    1.458263  -25.971749 H    2306 MOH     0.0372 ****
14141 HC3   -15.205789    0.892431  -24.332676 H    2306 MOH     0.0372 ****
14142 O1    -16.459794    2.139221  -25.384851 O    2306 MOH    -0.6497 ****
14143 HO1   -16.787729    2.194743  -26.285705 H    2306 MOH     0.4215 ****
14144 HC1    -8.600325    3.581154  -20.429446 H    2307 MOH     0.0372 ****
14145 C1     -8.853204    4.445824  -19.815678 C    2307 MOH     0.1166 ****
14146 HC2    -8.045491    4.629127  -19.107864 H    2307 MOH     0.0372 ****
14147 HC3    -9.771191    4.213122  -19.276862 H    2307 MOH     0.0372 ****
14148 O1     -9.045462    5.554218  -20.671984 O    2307 MOH    -0.6497 ****
14149 HO1    -9.730777    5.283141  -21.287167 H    2307 MOH     0.4215 ****
14150 HC1   -12.340977   -3.678317  -23.963566 H    2308 MOH     0.0372 ****
14151 C1    -11.518253   -4.369073  -24.148828 C    2308 MOH     0.1166 ****
14152 HC2   -11.242857   -4.247824  -25.196053 H    2308 MOH     0.0372 ****
14153 HC3   -11.826558   -5.408882  -24.042055 H    2308 MOH     0.0372 ****
14154 O1    -10.428216   -4.058396  -23.264237 O    2308 MOH    -0.6497 ****
14155 HO1    -9.817379   -4.798959  -23.251510 H    2308 MOH     0.4215 ****
14156 HC1    -7.506823   -2.720567  -25.028469 H    2309 MOH     0.0372 ****
14157 C1     -8.338208   -2.037159  -25.198174 C    2309 MOH     0.1166 ****
14158 HC2    -9.260236   -2.497255  -24.841086 H    2309 MOH     0.0372 ****
14159 HC3    -8.408645   -1.848957  -26.269441 H    2309 MOH     0.0372 ****
14160 O1     -8.010273   -0.816497  -24.546222 O    2309 MOH    -0.6497 ****
14161 HO1    -7.397127   -1.013681  -23.834165 H    2309 MOH     0.4215 ****
14162 HC1   -15.000253   -0.491123  -16.545309 H    2310 MOH     0.0372 ****
14163 C1    -15.891681    0.135538  -16.577129 C    2310 MOH     0.1166 ****
14164 HC2   -16.780224   -0.495205  -16.617434 H    2310 MOH     0.0372 ****
14165 HC3   -15.882444    0.753626  -17.475154 H    2310 MOH     0.0372 ****
14166 O1    -15.881289    0.983062  -15.455657 O    2310 MOH    -0.6497 ****
14167 HO1   -15.125538    1.563183  -15.572330 H    2310 MOH     0.4215 ****
14168 HC1    -7.747001    0.105736  -29.005945 H    2311 MOH     0.0372 ****
14169 C1     -8.756787   -0.215147  -29.261917 C    2311 MOH     0.1166 ****
14170 HC2    -9.454226    0.215555  -28.542790 H    2311 MOH     0.0372 ****
14171 HC3    -8.838193   -1.301496  -29.227269 H    2311 MOH     0.0372 ****
14172 O1     -9.111857    0.244132  -30.534002 O    2311 MOH    -0.6497 ****
14173 HO1    -8.513145   -0.163300  -31.163327 H    2311 MOH     0.4215 ****
14174 HC1   -13.343257    0.770773  -17.958815 H    2312 MOH     0.0372 ****
14175 C1    -13.118668    1.836709  -17.908611 C    2312 MOH     0.1166 ****
14176 HC2   -13.477780    2.384578  -18.779766 H    2312 MOH     0.0372 ****
14177 HC3   -12.032672    1.883249  -17.980736 H    2312 MOH     0.0372 ****
14178 O1    -13.479512    2.434793  -16.642183 O    2312 MOH    -0.6497 ****
14179 HO1   -13.551681    3.383562  -16.768048 H    2312 MOH     0.4215 ****
14180 HC1   -19.101172   -1.323133  -21.509199 H    2313 MOH     0.0372 ****
14181 C1    -18.755916   -2.166166  -22.106704 C    2313 MOH     0.1166 ****
14182 HC2   -18.015753   -2.698113  -21.507784 H    2313 MOH     0.0372 ****
14183 HC3   -18.314243   -1.780371  -23.025235 H    2313 MOH     0.0372 ****
14184 O1    -19.808426   -3.083908  -22.440458 O    2313 MOH    -0.6497 ****
14185 HO1   -19.529565   -3.597076  -23.202012 H    2313 MOH     0.4215 ****
14186 HC1   -11.943760    7.214155  -27.731738 H    2314 MOH     0.0372 ****
14187 C1    -12.436240    7.650573  -28.600772 C    2314 MOH     0.1166 ****
14188 HC2   -13.378476    8.138021  -28.350457 H    2314 MOH     0.0372 ****
14189 HC3   -12.688542    6.816113  -29.255553 H    2314 MOH     0.0372 ****
14190 O1    -11.598505    8.575663  -29.300808 O    2314 MOH    -0.6497 ****
14191 HO1   -12.139482    9.275401  -29.672746 H    2314 MOH     0.4215 ****
14192 HC1    -5.602722   -4.185770  -30.070847 H    2315 MOH     0.0372 ****
14193 C1     -6.508585   -3.861213  -30.582085 C    2315 MOH     0.1166 ****
14194 HC2    -7.394240   -4.253947  -30.082868 H    2315 MOH     0.0372 ****
14195 HC3    -6.501079   -4.209448  -31.615168 H    2315 MOH     0.0372 ****
14196 O1     -6.601538   -2.469086  -30.567943 O    2315 MOH    -0.6497 ****
14197 HO1    -6.331338   -2.183720  -29.691838 H    2315 MOH     0.4215 ****
14198 HC1   -13.068439    0.378038  -28.085999 H    2316 MOH     0.0372 ****
14199 C1    -12.405063   -0.443766  -27.816591 C    2316 MOH     0.1166 ****
14200 HC2   -11.388927   -0.057563  -27.738809 H    2316 MOH     0.0372 ****
14201 HC3   -12.418919   -1.226378  -28.575317 H    2316 MOH     0.0372 ****
14202 O1    -12.783228   -0.870794  -26.529657 O    2316 MOH    -0.6497 ****
14203 HO1   -12.729534   -0.101654  -25.958314 H    2316 MOH     0.4215 ****
14204 HC1    -9.288526    6.577288  -23.982658 H    2317 MOH     0.0372 ****
14205 C1     -9.628008    5.831418  -24.701786 C    2317 MOH     0.1166 ****
14206 HC2   -10.134345    4.994101  -24.220246 H    2317 MOH     0.0372 ****
14207 HC3    -8.741198    5.434601  -25.196760 H    2317 MOH     0.0372 ****
14208 O1    -10.469208    6.451956  -25.656380 O    2317 MOH    -0.6497 ****
14209 HO1    -9.939777    7.136996  -26.072159 H    2317 MOH     0.4215 ****
14210 HC1   -15.919972    4.073501  -29.819825 H    2318 MOH     0.0372 ****
14211 C1    -15.263524    4.349069  -28.994631 C    2318 MOH     0.1166 ****
14212 HC2   -15.810275    4.313143  -28.051350 H    2318 MOH     0.0372 ****
14213 HC3   -14.917114    5.371731  -29.145245 H    2318 MOH     0.0372 ****
14214 O1    -14.144619    3.477050  -28.929577 O    2318 MOH    -0.6497 ****
14215 HO1   -13.539556    3.803649  -28.259240 H    2318 MOH     0.4215 ****
14216 HC1   -12.143523    8.788361  -22.052257 H    2319 MOH     0.0372 ****
14217 C1    -12.455293    8.369498  -21.094834 C    2319 MOH     0.1166 ****
14218 HC2   -12.982413    9.115776  -20.502278 H    2319 MOH     0.0372 ****
14219 HC3   -11.562709    8.035959  -20.566625 H    2319 MOH     0.0372 ****
14220 O1    -13.269934    7.255388  -21.321815 O    2319 MOH    -0.6497 ****
14221 HO1   -13.955826    7.496663  -21.947605 H    2319 MOH     0.4215 ****
14222 HC1   -17.306190    5.712618  -23.259995 H    2320 MOH     0.0372 ****
14223 C1    -16.724220    5.955118  -24.149535 C    2320 MOH     0.1166 ****
14224 HC2   -16.760594    5.133314  -24.864420 H    2320 MOH     0.0372 ****
14225 HC3   -15.697114    6.098413  -23.812245 H    2320 MOH     0.0372 ****
14226 O1    -17.190142    7.199458  -24.681280 O    2320 MOH    -0.6497 ****
14227 HO1   -16.774450    7.876742  -24.143171 H    2320 MOH     0.4215 ****
14228 HC1   -19.811890    1.146361  -25.588498 H    2321 MOH     0.0372 ****
14229 C1    -19.649077    0.922233  -24.534201 C    2321 MOH     0.1166 ****
14230 HC2   -19.081542   -0.004491  -24.442277 H    2321 MOH     0.0372 ****
14231 HC3   -20.632882    0.804657  -24.080239 H    2321 MOH     0.0372 ****
14232 O1    -18.956257    1.998783  -23.942353 O    2321 MOH    -0.6497 ****
14233 HO1   -18.117944    2.089415  -24.400558 H    2321 MOH     0.4215 ****
14234 HC1   -21.876494   -4.919800  -20.828962 H    2322 MOH     0.0372 ****
14235 C1    -22.269670   -4.485016  -19.910430 C    2322 MOH     0.1166 ****
14236 HC2   -22.453845   -3.420304  -20.051851 H    2322 MOH     0.0372 ****
14237 HC3   -21.570499   -4.629127  -19.086651 H    2322 MOH     0.0372 ****
14238 O1    -23.434185   -5.145970  -19.581625 O    2322 MOH    -0.6497 ****
14239 HO1   -23.858538   -4.696488  -18.846941 H    2322 MOH     0.4215 ****
14240 HC1    -6.002826   -5.291715  -25.633752 H    2323 MOH     0.0372 ****
14241 C1     -5.618888   -4.694856  -26.461067 C    2323 MOH     0.1166 ****
14242 HC2    -4.931264   -5.312127  -27.039480 H    2323 MOH     0.0372 ****
14243 HC3    -5.117748   -3.833043  -26.019125 H    2323 MOH     0.0372 ****
14244 O1     -6.684099   -4.255172  -27.248077 O    2323 MOH    -0.6497 ****
14245 HO1    -7.213529   -5.011248  -27.509707 H    2323 MOH     0.4215 ****
14246 HC1   -15.536611    3.704445  -21.033316 H    2324 MOH     0.0372 ****
14247 C1    -15.473102    2.781395  -21.609608 C    2324 MOH     0.1166 ****
14248 HC2   -14.441378    2.577271  -21.895279 H    2324 MOH     0.0372 ****
14249 HC3   -16.090290    2.893255  -22.500562 H    2324 MOH     0.0372 ****
14250 O1    -15.990986    1.728115  -20.844518 O    2324 MOH    -0.6497 ****
14251 HO1   -15.740993    0.903453  -21.268782 H    2324 MOH     0.4215 ****
14252 HC1    -6.110790    0.164932  -26.898059 H    2325 MOH     0.0372 ****
14253 C1     -5.470509   -0.710352  -26.789165 C    2325 MOH     0.1166 ****
14254 HC2    -5.620620   -1.111252  -25.786487 H    2325 MOH     0.0372 ****
14255 HC3    -4.431856   -0.397634  -26.895231 H    2325 MOH     0.0372 ****
14256 O1     -5.849828   -1.652181  -27.792549 O    2325 MOH    -0.6497 ****
14257 HO1    -5.920842   -2.525424  -27.400105 H    2325 MOH     0.4215 ****
14258 HC1    -7.975055    2.378454  -22.477228 H    2326 MOH     0.0372 ****
14259 C1     -7.116535    2.740162  -23.042913 C    2326 MOH     0.1166 ****
14260 HC2    -7.464677    3.259454  -23.935282 H    2326 MOH     0.0372 ****
14261 HC3    -6.487223    1.899579  -23.336362 H    2326 MOH     0.0372 ****
14262 O1     -6.367134    3.629735  -22.247418 O    2326 MOH    -0.6497 ****
14263 HO1    -6.199702    3.211281  -21.399597 H    2326 MOH     0.4215 ****
14264 HC1    -7.176002    3.699546  -32.409249 H    2327 MOH     0.0372 ****
14265 C1     -7.622871    4.113510  -33.312932 C    2327 MOH     0.1166 ****
14266 HC2    -8.650554    4.432351  -33.141105 H    2327 MOH     0.0372 ****
14267 HC3    -7.592271    3.341104  -34.082264 H    2327 MOH     0.0372 ****
14268 O1     -6.812271    5.177813  -33.701134 O    2327 MOH    -0.6497 ****
14269 HO1    -6.630406    5.724049  -32.933216 H    2327 MOH     0.4215 ****
14270 HC1   -22.344148   -4.413981  -15.611221 H    2328 MOH     0.0372 ****
14271 C1    -21.449833   -4.856522  -15.171400 C    2328 MOH     0.1166 ****
14272 HC2   -21.384015   -4.583404  -14.118518 H    2328 MOH     0.0372 ****
14273 HC3   -20.559558   -4.486649  -15.680517 H    2328 MOH     0.0372 ****
14274 O1    -21.501217   -6.269061  -15.287366 O    2328 MOH    -0.6497 ****
14275 HO1   -20.595931   -6.577288  -15.198978 H    2328 MOH     0.4215 ****
14276 HC1   -22.939974    3.965724  -22.024679 H    2329 MOH     0.0372 ****
14277 C1    -23.006369    3.705261  -20.968262 C    2329 MOH     0.1166 ****
14278 HC2   -22.898404    2.627078  -20.844518 H    2329 MOH     0.0372 ****
14279 HC3   -23.990174    4.020021  -20.619658 H    2329 MOH     0.0372 ****
14280 O1    -22.022564    4.424187  -20.244892 O    2329 MOH    -0.6497 ****
14281 HO1   -21.199840    4.315184  -20.727846 H    2329 MOH     0.4215 ****
14282 HC1   -15.393428    6.526665  -17.176048 H    2330 MOH     0.0372 ****
14283 C1    -14.955797    5.623212  -17.601019 C    2330 MOH     0.1166 ****
14284 HC2   -14.712155    5.818355  -18.644709 H    2330 MOH     0.0372 ****
14285 HC3   -15.661319    4.796917  -17.507681 H    2330 MOH     0.0372 ****
14286 O1    -13.819571    5.325599  -16.853607 O    2330 MOH    -0.6497 ****
14287 HO1   -13.191992    6.051464  -16.901691 H    2330 MOH     0.4215 ****
14288 HC1   -18.613311   -0.671160  -17.808909 H    2331 MOH     0.0372 ****
14289 C1    -19.023807   -1.627686  -17.485761 C    2331 MOH     0.1166 ****
14290 HC2   -18.244961   -2.390294  -17.464548 H    2331 MOH     0.0372 ****
14291 HC3   -19.809003   -1.906520  -18.187918 H    2331 MOH     0.0372 ****
14292 O1    -19.619632   -1.483166  -16.229939 O    2331 MOH    -0.6497 ****
14293 HO1   -18.998981   -1.034093  -15.651526 H    2331 MOH     0.4215 ****
14294 HC1   -13.412539    4.312735  -20.978161 H    2332 MOH     0.0372 ****
14295 C1    -12.487047    4.612389  -20.484601 C    2332 MOH     0.1166 ****
14296 HC2   -12.043065    3.758334  -19.972655 H    2332 MOH     0.0372 ****
14297 HC3   -12.732998    5.364382  -19.735068 H    2332 MOH     0.0372 ****
14298 O1    -11.604856    5.111677  -21.510613 O    2332 MOH    -0.6497 ****
14299 HO1   -11.795381    6.049831  -21.585566 H    2332 MOH     0.4215 ****
14300 HC1   -24.512676   -3.919184  -21.775778 H    2333 MOH     0.0372 ****
14301 C1    -24.029433   -4.069827  -22.740979 C    2333 MOH     0.1166 ****
14302 HC2   -23.573904   -5.059421  -22.760778 H    2333 MOH     0.0372 ****
14303 HC3   -23.269063   -3.300688  -22.879571 H    2333 MOH     0.0372 ****
14304 O1    -25.060581   -4.020429  -23.727393 O    2333 MOH    -0.6497 ****
14305 HO1   -25.573268   -3.219446  -23.597285 H    2333 MOH     0.4215 ****
14306 HC1   -14.995634    8.181704  -25.630217 H    2334 MOH     0.0372 ****
14307 C1    -14.049934    8.524632  -25.210195 C    2334 MOH     0.1166 ****
14308 HC2   -14.163672    9.499121  -24.734313 H    2334 MOH     0.0372 ****
14309 HC3   -13.320163    8.638125  -26.012055 H    2334 MOH     0.0372 ****
14310 O1    -13.608261    7.602400  -24.237924 O    2334 MOH    -0.6497 ****
14311 HO1   -12.776877    7.214155  -24.520059 H    2334 MOH     0.4215 ****
14312 HC1   -15.077617    0.115942  -30.559458 H    2335 MOH     0.0372 ****
14313 C1    -14.295885    0.789144  -30.910890 C    2335 MOH     0.1166 ****
14314 HC2   -13.736433    0.354359  -31.738912 H    2335 MOH     0.0372 ****
14315 HC3   -13.610570    0.994084  -30.089232 H    2335 MOH     0.0372 ****
14316 O1    -14.869771    1.988577  -31.356368 O    2335 MOH    -0.6497 ****
14317 HO1   -14.674627    2.631977  -30.670474 H    2335 MOH     0.4215 ****
14318 HC1   -15.679332   12.315871  -26.196609 H    2336 MOH     0.0372 ****
14319 C1    -16.480117   11.921911  -25.570820 C    2336 MOH     0.1166 ****
14320 HC2   -17.045920   11.191555  -26.149940 H    2336 MOH     0.0372 ****
14321 HC3   -17.152730   12.698808  -25.209488 H    2336 MOH     0.0372 ****
14322 O1    -15.983018   11.180941  -24.526423 O    2336 MOH    -0.6497 ****
14323 HO1   -15.438577   11.776983  -24.007407 H    2336 MOH     0.4215 ****
14324 HC1    -3.569987   13.554905  -21.690218 H    2337 MOH     0.0372 ****
14325 C1     -3.508788   14.334659  -20.932199 C    2337 MOH     0.1166 ****
14326 HC2    -3.148522   13.888852  -20.004475 H    2337 MOH     0.0372 ****
14327 HC3    -4.501831   14.760054  -20.786535 H    2337 MOH     0.0372 ****
14328 O1     -2.637567   15.357321  -21.359999 O    2337 MOH    -0.6497 ****
14329 HO1    -1.750757   14.997246  -21.426467 H    2337 MOH     0.4215 ****
14330 HC1    -3.948729    7.450368  -35.103326 H    2338 MOH     0.0372 ****
14331 C1     -4.135791    6.464448  -34.678355 C    2338 MOH     0.1166 ****
14332 HC2    -4.527811    6.559162  -33.665778 H    2338 MOH     0.0372 ****
14333 HC3    -3.178544    5.948014  -34.609766 H    2338 MOH     0.0372 ****
14334 O1     -4.976990    5.660607  -35.527590 O    2338 MOH    -0.6497 ****
14335 HO1    -5.692904    5.314413  -34.990189 H    2338 MOH     0.4215 ****
14336 HC1    -1.318321    7.922303  -28.466422 H    2339 MOH     0.0372 ****
14337 C1     -2.167026    8.357087  -27.938213 C    2339 MOH     0.1166 ****
14338 HC2    -2.303281    9.384240  -28.276210 H    2339 MOH     0.0372 ****
14339 HC3    -2.002481    8.344840  -26.860583 H    2339 MOH     0.0372 ****
14340 O1     -3.332696    7.658983  -28.271968 O    2339 MOH    -0.6497 ****
14341 HO1    -3.305561    6.858408  -27.742345 H    2339 MOH     0.4215 ****
14342 HC1    -9.128138   21.405519  -25.618903 H    2340 MOH     0.0372 ****
14343 C1     -8.524230   21.957063  -24.898361 C    2340 MOH     0.1166 ****
14344 HC2    -7.712476   21.321828  -24.544808 H    2340 MOH     0.0372 ****
14345 HC3    -9.172594   22.242836  -24.069632 H    2340 MOH     0.0372 ****
14346 O1     -8.019626   23.080970  -25.553849 O    2340 MOH    -0.6497 ****
14347 HO1    -7.206717   23.342657  -25.114736 H    2340 MOH     0.4215 ****
14348 HC1   -11.066303   16.084003  -21.234134 H    2341 MOH     0.0372 ****
14349 C1    -12.086481   15.791289  -20.985940 C    2341 MOH     0.1166 ****
14350 HC2   -12.247562   15.848852  -19.910430 H    2341 MOH     0.0372 ****
14351 HC3   -12.294905   14.769035  -21.302723 H    2341 MOH     0.0372 ****
14352 O1    -12.972714   16.683719  -21.586980 O    2341 MOH    -0.6497 ****
14353 HO1   -12.521226   17.060124  -22.346413 H    2341 MOH     0.4215 ****
14354 HC1   -16.467415   18.870706  -25.029883 H    2342 MOH     0.0372 ****
14355 C1    -15.427030   18.898058  -25.355859 C    2342 MOH     0.1166 ****
14356 HC2   -14.842751   18.258333  -24.693300 H    2342 MOH     0.0372 ****
14357 HC3   -15.085816   19.931743  -25.302119 H    2342 MOH     0.0372 ****
14358 O1    -15.360057   18.415917  -26.678856 O    2342 MOH    -0.6497 ****
14359 HO1   -15.954728   17.663107  -26.722697 H    2342 MOH     0.4215 ****
14360 HC1   -13.587015   14.188506  -29.189792 H    2343 MOH     0.0372 ****
14361 C1    -12.672492   14.494692  -29.697495 C    2343 MOH     0.1166 ****
14362 HC2   -12.077244   15.149114  -29.060392 H    2343 MOH     0.0372 ****
14363 HC3   -12.947888   15.040928  -30.599763 H    2343 MOH     0.0372 ****
14364 O1    -11.970434   13.355271  -30.095596 O    2343 MOH    -0.6497 ****
14365 HO1   -11.035704   13.554088  -30.005794 H    2343 MOH     0.4215 ****
14366 HC1    -5.580898   12.692684  -19.611324 H    2344 MOH     0.0372 ****
14367 C1     -5.281254   11.645527  -19.626173 C    2344 MOH     0.1166 ****
14368 HC2    -4.647323   11.456917  -20.493086 H    2344 MOH     0.0372 ****
14369 HC3    -6.149011   10.991514  -19.705369 H    2344 MOH     0.0372 ****
14370 O1     -4.576309   11.334442  -18.432577 O    2344 MOH    -0.6497 ****
14371 HO1    -4.142142   10.486102  -18.551371 H    2344 MOH     0.4215 ****
14372 HC1     1.224907    7.345040  -32.018926 H    2345 MOH     0.0372 ****
14373 C1      0.544788    6.776350  -31.384652 C    2345 MOH     0.1166 ****
14374 HC2     0.899281    6.813500  -30.354397 H    2345 MOH     0.0372 ****
14375 HC3     0.489940    5.739807  -31.716285 H    2345 MOH     0.0372 ****
14376 O1     -0.687855    7.399337  -31.466676 O    2345 MOH    -0.6497 ****
14377 HO1    -0.585664    8.292176  -31.130800 H    2345 MOH     0.4215 ****
14378 HC1    -4.907131   13.808427  -27.035238 H    2346 MOH     0.0372 ****
14379 C1     -5.047427   13.654109  -28.104383 C    2346 MOH     0.1166 ****
14380 HC2    -5.243726   14.608593  -28.593701 H    2346 MOH     0.0372 ****
14381 HC3    -5.881698   12.975192  -28.280453 H    2346 MOH     0.0372 ****
14382 O1     -3.871942   13.099708  -28.655927 O    2346 MOH    -0.6497 ****
14383 HO1    -3.225309   12.998870  -27.953770 H    2346 MOH     0.4215 ****
14384 HC1     1.554574    7.719403  -26.789872 H    2347 MOH     0.0372 ****
14385 C1      1.388297    7.806360  -25.715777 C    2347 MOH     0.1166 ****
14386 HC2     1.460465    8.862499  -25.456268 H    2347 MOH     0.0372 ****
14387 HC3     2.175225    7.252367  -25.203124 H    2347 MOH     0.0372 ****
14388 O1      0.062700    7.287477  -25.481724 O    2347 MOH    -0.6497 ****
14389 HO1    -0.248491    7.636121  -24.643096 H    2347 MOH     0.4215 ****
14390 HC1     0.420658   25.116496  -17.608797 H    2348 MOH     0.0372 ****
14391 C1     -0.290638   24.290610  -17.619404 C    2348 MOH     0.1166 ****
14392 HC2     0.071361   23.559437  -18.342774 H    2348 MOH     0.0372 ****
14393 HC3    -1.279639   24.662932  -17.889519 H    2348 MOH     0.0372 ****
14394 O1     -0.354147   23.717021  -16.334591 O    2348 MOH    -0.6497 ****
14395 HO1    -0.630120   24.400837  -15.720115 H    2348 MOH     0.4215 ****
14396 HC1   -15.071959   16.289352  -23.590921 H    2349 MOH     0.0372 ****
14397 C1    -15.463403   15.520212  -24.255601 C    2349 MOH     0.1166 ****
14398 HC2   -14.963995   15.554096  -25.223631 H    2349 MOH     0.0372 ****
14399 HC3   -16.534965   15.682695  -24.380052 H    2349 MOH     0.0372 ****
14400 O1    -15.322530   14.253417  -23.670824 O    2349 MOH    -0.6497 ****
14401 HO1   -15.768821   14.253009  -22.821589 H    2349 MOH     0.4215 ****
14402 HC1     1.148119   13.857416  -27.971447 H    2350 MOH     0.0372 ****
14403 C1      1.131376   12.850268  -28.389347 C    2350 MOH     0.1166 ****
14404 HC2     1.633093   12.191763  -27.681533 H    2350 MOH     0.0372 ****
14405 HC3     1.682745   12.821691  -29.329799 H    2350 MOH     0.0372 ****
14406 O1     -0.211541   12.414667  -28.538547 O    2350 MOH    -0.6497 ****
14407 HO1    -0.703443   12.675538  -27.755780 H    2350 MOH     0.4215 ****
14408 HC1    -4.717182   17.648410  -28.839774 H    2351 MOH     0.0372 ****
14409 C1     -5.780662   17.849268  -28.971296 C    2351 MOH     0.1166 ****
14410 HC2    -6.362631   16.928260  -28.944426 H    2351 MOH     0.0372 ****
14411 HC3    -5.945784   18.319979  -29.940740 H    2351 MOH     0.0372 ****
14412 O1     -6.230995   18.739658  -27.991953 O    2351 MOH    -0.6497 ****
14413 HO1    -6.120721   19.634130  -28.322172 H    2351 MOH     0.4215 ****
14414 HC1    -5.236798    9.320145  -26.432783 H    2352 MOH     0.0372 ****
14415 C1     -5.422704    9.905981  -27.332930 C    2352 MOH     0.1166 ****
14416 HC2    -5.404807    9.282178  -28.226713 H    2352 MOH     0.0372 ****
14417 HC3    -4.675036   10.691451  -27.441824 H    2352 MOH     0.0372 ****
14418 O1     -6.665162   10.494267  -27.203529 O    2352 MOH    -0.6497 ****
14419 HO1    -6.963652   10.604902  -28.109333 H    2352 MOH     0.4215 ****
14420 HC1    -4.052075   12.895175  -25.013620 H    2353 MOH     0.0372 ****
14421 C1     -3.298055   12.141549  -25.241308 C    2353 MOH     0.1166 ****
14422 HC2    -3.784184   11.251976  -25.640823 H    2353 MOH     0.0372 ****
14423 HC3    -2.809040   11.852101  -24.311463 H    2353 MOH     0.0372 ****
14424 O1     -2.363903   12.683703  -26.186003 O    2353 MOH    -0.6497 ****
14425 HO1    -2.147396   13.581441  -25.926495 H    2353 MOH     0.4215 ****
14426 HC1    -8.115466    6.265631  -27.748002 H    2354 MOH     0.0372 ****
14427 C1     -8.522498    7.266248  -27.892958 C    2354 MOH     0.1166 ****
14428 HC2    -9.568079    7.220524  -28.198429 H    2354 MOH     0.0372 ****
14429 HC3    -7.965932    7.723894  -28.709667 H    2354 MOH     0.0372 ****
14430 O1     -8.367768    8.090093  -26.736132 O    2354 MOH    -0.6497 ****
14431 HO1    -8.084867    8.970276  -26.996347 H    2354 MOH     0.4215 ****
14432 HC1    -8.709560   10.671039  -25.525565 H    2355 MOH     0.0372 ****
14433 C1     -8.621225   11.656958  -25.069481 C    2355 MOH     0.1166 ****
14434 HC2    -9.222247   11.688802  -24.161556 H    2355 MOH     0.0372 ****
14435 HC3    -8.973409   12.392213  -25.792851 H    2355 MOH     0.0372 ****
14436 O1     -7.281195   11.860674  -24.761890 O    2355 MOH    -0.6497 ****
14437 HO1    -6.796221   11.394046  -25.445662 H    2355 MOH     0.4215 ****
14438 HC1    -4.413496   24.771118  -20.727138 H    2356 MOH     0.0372 ****
14439 C1     -4.456220   25.645178  -21.376970 C    2356 MOH     0.1166 ****
14440 HC2    -3.655435   26.345323  -21.138675 H    2356 MOH     0.0372 ****
14441 HC3    -5.395569   26.161204  -21.181808 H    2356 MOH     0.0372 ****
14442 O1     -4.455643   25.290818  -22.768556 O    2356 MOH    -0.6497 ****
14443 HO1    -4.346524   26.083228  -23.299593 H    2356 MOH     0.4215 ****
14444 HC1    -6.745991    5.833705  -24.711685 H    2357 MOH     0.0372 ****
14445 C1     -5.669810    5.841870  -24.881391 C    2357 MOH     0.1166 ****
14446 HC2    -5.249499    6.702049  -24.361667 H    2357 MOH     0.0372 ****
14447 HC3    -5.466006    5.902290  -25.950536 H    2357 MOH     0.0372 ****
14448 O1     -5.076294    4.697141  -24.380759 O    2357 MOH    -0.6497 ****
14449 HO1    -5.538174    4.435862  -23.581728 H    2357 MOH     0.4215 ****
14450 HC1   -10.930626   17.487152  -27.842047 H    2358 MOH     0.0372 ****
14451 C1     -9.898901   17.203419  -28.047815 C    2358 MOH     0.1166 ****
14452 HC2    -9.628124   16.377533  -27.390913 H    2358 MOH     0.0372 ****
14453 HC3    -9.250537   18.054209  -27.837097 H    2358 MOH     0.0372 ****
14454 O1     -9.760914   16.884169  -29.409703 O    2358 MOH    -0.6497 ****
14455 HO1   -10.057672   17.676987  -29.862251 H    2358 MOH     0.4215 ****
14456 HC1     0.694899   12.924977  -20.198930 H    2359 MOH     0.0372 ****
14457 C1      0.769955   13.966827  -20.508642 C    2359 MOH     0.1166 ****
14458 HC2     1.808608   14.191364  -20.751887 H    2359 MOH     0.0372 ****
14459 HC3     0.407956   14.568177  -19.673549 H    2359 MOH     0.0372 ****
14460 O1     -0.118010   14.124411  -21.584859 O    2359 MOH    -0.6497 ****
14461 HO1     0.249185   13.603894  -22.302572 H    2359 MOH     0.4215 ****
14462 HC1    -9.580204    9.012326  -19.650215 H    2360 MOH     0.0372 ****
14463 C1     -8.587739    9.033146  -20.100642 C    2360 MOH     0.1166 ****
14464 HC2    -8.064659    9.944357  -19.810728 H    2360 MOH     0.0372 ****
14465 HC3    -8.647783    8.977625  -21.186758 H    2360 MOH     0.0372 ****
14466 O1     -7.852772    7.968435  -19.652336 O    2360 MOH    -0.6497 ****
14467 HO1    -8.299641    7.172351  -19.947907 H    2360 MOH     0.4215 ****
14468 HC1   -11.640189   21.241812  -26.644915 H    2361 MOH     0.0372 ****
14469 C1    -11.879790   20.609027  -25.790730 C    2361 MOH     0.1166 ****
14470 HC2   -12.925371   20.733542  -25.510009 H    2361 MOH     0.0372 ****
14471 HC3   -11.247591   20.916438  -24.957051 H    2361 MOH     0.0372 ****
14472 O1    -11.577836   19.258950  -26.106807 O    2361 MOH    -0.6497 ****
14473 HO1   -12.040293   18.985832  -26.902302 H    2361 MOH     0.4215 ****
14474 HC1    -2.404895    9.615309  -24.124079 H    2362 MOH     0.0372 ****
14475 C1     -2.153747    9.094792  -23.199891 C    2362 MOH     0.1166 ****
14476 HC2    -2.820587    8.241145  -23.078975 H    2362 MOH     0.0372 ****
14477 HC3    -2.276723    9.764727  -22.349241 H    2362 MOH     0.0372 ****
14478 O1     -0.813717    8.664090  -23.296764 O    2362 MOH    -0.6497 ****
14479 HO1    -0.623769    8.108464  -22.538039 H    2362 MOH     0.4215 ****
14480 HC1   -10.878664   15.843544  -24.903311 H    2363 MOH     0.0372 ****
14481 C1    -11.888450   16.242811  -24.811387 C    2363 MOH     0.1166 ****
14482 HC2   -12.501019   15.501432  -24.298028 H    2363 MOH     0.0372 ****
14483 HC3   -12.289709   16.434688  -25.806994 H    2363 MOH     0.0372 ****
14484 O1    -11.820323   17.431630  -24.049126 O    2363 MOH    -0.6497 ****
14485 HO1   -11.486037   18.124836  -24.623297 H    2363 MOH     0.4215 ****
14486 HC1     1.579400    9.187464  -29.179893 H    2364 MOH     0.0372 ****
14487 C1      2.450621    9.690834  -29.599207 C    2364 MOH     0.1166 ****
14488 HC2     2.152708   10.640012  -30.042563 H    2364 MOH     0.0372 ****
14489 HC3     2.889407    9.079278  -30.388338 H    2364 MOH     0.0372 ****
14490 O1      3.419415    9.965994  -28.613500 O    2364 MOH    -0.6497 ****
14491 HO1     3.849541    9.127860  -28.430360 H    2364 MOH     0.4215 ****
14492 HC1    -8.448597   18.517163  -20.218729 H    2365 MOH     0.0372 ****
14493 C1     -7.840647   19.387956  -20.466923 C    2365 MOH     0.1166 ****
14494 HC2    -6.791025   19.118512  -20.581474 H    2365 MOH     0.0372 ****
14495 HC3    -7.897228   20.110147  -19.651629 H    2365 MOH     0.0372 ****
14496 O1     -8.235555   19.950114  -21.676783 O    2365 MOH    -0.6497 ****
14497 HO1    -7.953808   19.351622  -22.372576 H    2365 MOH     0.4215 ****
14498 HC1    -9.389101   10.773101  -30.017107 H    2366 MOH     0.0372 ****
14499 C1     -8.532313   10.515088  -30.640775 C    2366 MOH     0.1166 ****
14500 HC2    -8.346406   11.308314  -31.364146 H    2366 MOH     0.0372 ****
14501 HC3    -8.778264    9.611226  -31.197976 H    2366 MOH     0.0372 ****
14502 O1     -7.368952   10.324436  -29.839623 O    2366 MOH    -0.6497 ****
14503 HO1    -6.672668    9.976608  -30.401066 H    2366 MOH     0.4215 ****
14504 HC1    -3.334428   10.433030  -30.833816 H    2367 MOH     0.0372 ****
14505 C1     -3.832682    9.657358  -31.413643 C    2367 MOH     0.1166 ****
14506 HC2    -3.105798    8.911897  -31.736084 H    2367 MOH     0.0372 ****
14507 HC3    -4.295139   10.131334  -32.279849 H    2367 MOH     0.0372 ****
14508 O1     -4.807826    9.026614  -30.616734 O    2367 MOH    -0.6497 ****
14509 HO1    -4.336131    8.657558  -29.867201 H    2367 MOH     0.4215 ****
14510 HC1     0.006120   16.484903  -23.646782 H    2368 MOH     0.0372 ****
14511 C1     -0.616263   17.379375  -23.655975 C    2368 MOH     0.1166 ****
14512 HC2    -0.172281   18.166477  -23.046449 H    2368 MOH     0.0372 ****
14513 HC3    -1.587944   17.101357  -23.246560 H    2368 MOH     0.0372 ****
14514 O1     -0.795819   17.832122  -24.977557 O    2368 MOH    -0.6497 ****
14515 HO1     0.061546   18.107689  -25.310605 H    2368 MOH     0.4215 ****
14516 HC1    -4.364999   16.664532  -25.806286 H    2369 MOH     0.0372 ****
14517 C1     -3.911201   17.543899  -25.349495 C    2369 MOH     0.1166 ****
14518 HC2    -3.074044   17.860699  -25.971749 H    2369 MOH     0.0372 ****
14519 HC3    -3.607515   17.294867  -24.332676 H    2369 MOH     0.0372 ****
14520 O1     -4.861520   18.541657  -25.384851 O    2369 MOH    -0.6497 ****
14521 HO1    -5.189455   18.597179  -26.285705 H    2369 MOH     0.4215 ****
14522 HC1     2.997949   19.983590  -20.429446 H    2370 MOH     0.0372 ****
14523 C1      2.745070   20.848260  -19.815678 C    2370 MOH     0.1166 ****
14524 HC2     3.552783   21.031564  -19.107864 H    2370 MOH     0.0372 ****
14525 HC3     1.827083   20.615559  -19.276862 H    2370 MOH     0.0372 ****
14526 O1      2.552812   21.956654  -20.671984 O    2370 MOH    -0.6497 ****
14527 HO1     1.867497   21.685577  -21.287167 H    2370 MOH     0.4215 ****
14528 HC1    -0.742703   12.724119  -23.963566 H    2371 MOH     0.0372 ****
14529 C1      0.080021   12.033363  -24.148828 C    2371 MOH     0.1166 ****
14530 HC2     0.355417   12.154613  -25.196053 H    2371 MOH     0.0372 ****
14531 HC3    -0.228284   10.993555  -24.042055 H    2371 MOH     0.0372 ****
14532 O1      1.170058   12.344040  -23.264237 O    2371 MOH    -0.6497 ****
14533 HO1     1.780895   11.603478  -23.251510 H    2371 MOH     0.4215 ****
14534 HC1     4.091451   13.681870  -25.028469 H    2372 MOH     0.0372 ****
14535 C1      3.260066   14.365277  -25.198174 C    2372 MOH     0.1166 ****
14536 HC2     2.338038   13.905182  -24.841086 H    2372 MOH     0.0372 ****
14537 HC3     3.189630   14.553480  -26.269441 H    2372 MOH     0.0372 ****
14538 O1      3.588001   15.585940  -24.546222 O    2372 MOH    -0.6497 ****
14539 HO1     4.201147   15.388756  -23.834165 H    2372 MOH     0.4215 ****
14540 HC1    -3.401979   15.911314  -16.545309 H    2373 MOH     0.0372 ****
14541 C1     -4.293407   16.537975  -16.577129 C    2373 MOH     0.1166 ****
14542 HC2    -5.181949   15.907231  -16.617434 H    2373 MOH     0.0372 ****
14543 HC3    -4.284170   17.156063  -17.475154 H    2373 MOH     0.0372 ****
14544 O1     -4.283015   17.385498  -15.455657 O    2373 MOH    -0.6497 ****
14545 HO1    -3.527264   17.965619  -15.572330 H    2373 MOH     0.4215 ****
14546 HC1    -1.744983   17.173209  -17.958815 H    2374 MOH     0.0372 ****
14547 C1     -1.520394   18.239145  -17.908611 C    2374 MOH     0.1166 ****
14548 HC2    -1.879506   18.787015  -18.779766 H    2374 MOH     0.0372 ****
14549 HC3    -0.434398   18.285686  -17.980736 H    2374 MOH     0.0372 ****
14550 O1     -1.881238   18.837229  -16.642183 O    2374 MOH    -0.6497 ****
14551 HO1    -1.953407   19.785998  -16.768048 H    2374 MOH     0.4215 ****
14552 HC1    -2.658351    3.722244  -26.591175 H    2375 MOH     0.0372 ****
14553 C1     -2.076960    4.479545  -26.064380 C    2375 MOH     0.1166 ****
14554 HC2    -1.023295    4.235413  -26.201559 H    2375 MOH     0.0372 ****
14555 HC3    -2.306745    4.490159  -24.999477 H    2375 MOH     0.0372 ****
14556 O1     -2.205131    5.739807  -26.616631 O    2375 MOH    -0.6497 ****
14557 HO1    -1.406656    6.216233  -26.375507 H    2375 MOH     0.4215 ****
14558 HC1    -7.502897   15.079304  -21.509199 H    2376 MOH     0.0372 ****
14559 C1     -7.157642   14.236271  -22.106704 C    2376 MOH     0.1166 ****
14560 HC2    -6.417479   13.704323  -21.507784 H    2376 MOH     0.0372 ****
14561 HC3    -6.715969   14.622066  -23.025235 H    2376 MOH     0.0372 ****
14562 O1     -8.210152   13.318529  -22.440458 O    2376 MOH    -0.6497 ****
14563 HO1    -7.931291   12.805361  -23.202012 H    2376 MOH     0.4215 ****
14564 HC1    -2.437803    3.399728  -31.253837 H    2377 MOH     0.0372 ****
14565 C1     -2.470712    4.484852  -31.352832 C    2377 MOH     0.1166 ****
14566 HC2    -2.025575    4.953930  -30.475312 H    2377 MOH     0.0372 ****
14567 HC3    -3.508211    4.810634  -31.427785 H    2377 MOH     0.0372 ****
14568 O1     -1.784820    4.862074  -32.518144 O    2377 MOH    -0.6497 ****
14569 HO1    -1.683207    5.815333  -32.477839 H    2377 MOH     0.4215 ****
14570 HC1    -1.470164   16.780474  -28.085999 H    2378 MOH     0.0372 ****
14571 C1     -0.806789   15.958670  -27.816591 C    2378 MOH     0.1166 ****
14572 HC2     0.209347   16.344873  -27.738809 H    2378 MOH     0.0372 ****
14573 HC3    -0.820645   15.176058  -28.575317 H    2378 MOH     0.0372 ****
14574 O1     -1.184953   15.531643  -26.529657 O    2378 MOH    -0.6497 ****
14575 HO1    -1.131260   16.300783  -25.958314 H    2378 MOH     0.4215 ****
14576 HC1    -0.545249   25.190797  -22.052257 H    2379 MOH     0.0372 ****
14577 C1     -0.857019   24.771935  -21.094834 C    2379 MOH     0.1166 ****
14578 HC2    -1.384139   25.518212  -20.502278 H    2379 MOH     0.0372 ****
14579 HC3     0.035565   24.438396  -20.566625 H    2379 MOH     0.0372 ****
14580 O1     -1.671660   23.657825  -21.321815 O    2379 MOH    -0.6497 ****
14581 HO1    -2.357552   23.899100  -21.947605 H    2379 MOH     0.4215 ****
14582 HC1   -14.983625   10.408127  -29.766792 H    2380 MOH     0.0372 ****
14583 C1    -14.339879   11.192372  -30.163478 C    2380 MOH     0.1166 ****
14584 HC2   -14.305816   11.993763  -29.425966 H    2380 MOH     0.0372 ****
14585 HC3   -14.738828   11.632463  -31.078475 H    2380 MOH     0.0372 ****
14586 O1    -13.028139   10.727785  -30.393995 O    2380 MOH    -0.6497 ****
14587 HO1   -12.585889   11.514888  -30.719264 H    2380 MOH     0.4215 ****
14588 HC1    -5.707915   22.115055  -23.259995 H    2381 MOH     0.0372 ****
14589 C1     -5.125946   22.357554  -24.149535 C    2381 MOH     0.1166 ****
14590 HC2    -5.162319   21.535750  -24.864420 H    2381 MOH     0.0372 ****
14591 HC3    -4.098840   22.500849  -23.812245 H    2381 MOH     0.0372 ****
14592 O1     -5.591868   23.601895  -24.681280 O    2381 MOH    -0.6497 ****
14593 HO1    -5.176176   24.279179  -24.143171 H    2381 MOH     0.4215 ****
14594 HC1    -8.213616   17.548798  -25.588498 H    2382 MOH     0.0372 ****
14595 C1     -8.050803   17.324669  -24.534201 C    2382 MOH     0.1166 ****
14596 HC2    -7.483268   16.397946  -24.442277 H    2382 MOH     0.0372 ****
14597 HC3    -9.034608   17.207094  -24.080239 H    2382 MOH     0.0372 ****
14598 O1     -7.357983   18.401220  -23.942353 O    2382 MOH    -0.6497 ****
14599 HO1    -6.519670   18.491851  -24.400558 H    2382 MOH     0.4215 ****
14600 HC1   -10.278220   11.482636  -20.828962 H    2383 MOH     0.0372 ****
14601 C1    -10.671396   11.917421  -19.910430 C    2383 MOH     0.1166 ****
14602 HC2   -10.855571   12.982132  -20.051851 H    2383 MOH     0.0372 ****
14603 HC3    -9.972225   11.773309  -19.086651 H    2383 MOH     0.0372 ****
14604 O1    -11.835911   11.256467  -19.581625 O    2383 MOH    -0.6497 ****
14605 HO1   -12.260264   11.705948  -18.846941 H    2383 MOH     0.4215 ****
14606 HC1    -6.304318    8.169293  -35.966704 H    2384 MOH     0.0372 ****
14607 C1     -7.041017    8.515079  -35.241919 C    2384 MOH     0.1166 ****
14608 HC2    -7.311794    7.707156  -34.560975 H    2384 MOH     0.0372 ****
14609 HC3    -7.949766    8.814734  -35.762350 H    2384 MOH     0.0372 ****
14610 O1     -6.601076    9.596529  -34.447838 O    2384 MOH    -0.6497 ****
14611 HO1    -5.653644    9.527943  -34.312074 H    2384 MOH     0.4215 ****
14612 HC1    -7.467102    5.918620  -30.204491 H    2385 MOH     0.0372 ****
14613 C1     -6.431913    6.222765  -30.360761 C    2385 MOH     0.1166 ****
14614 HC2    -5.843015    5.320128  -30.528345 H    2385 MOH     0.0372 ****
14615 HC3    -6.058944    6.779616  -29.502333 H    2385 MOH     0.0372 ****
14616 O1     -6.434222    6.954346  -31.537387 O    2385 MOH    -0.6497 ****
14617 HO1    -5.796827    7.663473  -31.427785 H    2385 MOH     0.4215 ****
14618 HC1     5.595448   11.110722  -25.633752 H    2386 MOH     0.0372 ****
14619 C1      5.979386   11.707581  -26.461067 C    2386 MOH     0.1166 ****
14620 HC2     6.667010   11.090310  -27.039480 H    2386 MOH     0.0372 ****
14621 HC3     6.480526   12.569393  -26.019125 H    2386 MOH     0.0372 ****
14622 O1      4.914175   12.147264  -27.248077 O    2386 MOH    -0.6497 ****
14623 HO1     4.384745   11.391189  -27.509707 H    2386 MOH     0.4215 ****
14624 HC1    -3.938337   20.106881  -21.033316 H    2387 MOH     0.0372 ****
14625 C1     -3.874828   19.183832  -21.609608 C    2387 MOH     0.1166 ****
14626 HC2    -2.843103   18.979708  -21.895279 H    2387 MOH     0.0372 ****
14627 HC3    -4.492016   19.295692  -22.500562 H    2387 MOH     0.0372 ****
14628 O1     -4.392712   18.130551  -20.844518 O    2387 MOH    -0.6497 ****
14629 HO1    -4.142719   17.305890  -21.268782 H    2387 MOH     0.4215 ****
14630 HC1     3.623220   18.780891  -22.477228 H    2388 MOH     0.0372 ****
14631 C1      4.481739   19.142599  -23.042913 C    2388 MOH     0.1166 ****
14632 HC2     4.133597   19.661891  -23.935282 H    2388 MOH     0.0372 ****
14633 HC3     5.111051   18.302016  -23.336362 H    2388 MOH     0.0372 ****
14634 O1      5.231140   20.032172  -22.247418 O    2388 MOH    -0.6497 ****
14635 HO1     5.398572   19.613717  -21.399597 H    2388 MOH     0.4215 ****
14636 HC1   -10.745874   11.988456  -15.611221 H    2389 MOH     0.0372 ****
14637 C1     -9.851558   11.545915  -15.171400 C    2389 MOH     0.1166 ****
14638 HC2    -9.785741   11.819033  -14.118518 H    2389 MOH     0.0372 ****
14639 HC3    -8.961284   11.915788  -15.680517 H    2389 MOH     0.0372 ****
14640 O1     -9.902943   10.133376  -15.287366 O    2389 MOH    -0.6497 ****
14641 HO1    -8.997657    9.825148  -15.198978 H    2389 MOH     0.4215 ****
14642 HC1   -11.341699   20.368160  -22.024679 H    2390 MOH     0.0372 ****
14643 C1    -11.408095   20.107698  -20.968262 C    2390 MOH     0.1166 ****
14644 HC2   -11.300130   19.029514  -20.844518 H    2390 MOH     0.0372 ****
14645 HC3   -12.391900   20.422457  -20.619658 H    2390 MOH     0.0372 ****
14646 O1    -10.424290   20.826623  -20.244892 O    2390 MOH    -0.6497 ****
14647 HO1    -9.601566   20.717621  -20.727846 H    2390 MOH     0.4215 ****
14648 HC1    -3.795154   22.929102  -17.176048 H    2391 MOH     0.0372 ****
14649 C1     -3.357523   22.025648  -17.601019 C    2391 MOH     0.1166 ****
14650 HC2    -3.113881   22.220791  -18.644709 H    2391 MOH     0.0372 ****
14651 HC3    -4.063045   21.199354  -17.507681 H    2391 MOH     0.0372 ****
14652 O1     -2.221297   21.728035  -16.853607 O    2391 MOH    -0.6497 ****
14653 HO1    -1.593718   22.453901  -16.901691 H    2391 MOH     0.4215 ****
14654 HC1    -7.015037   15.731276  -17.808909 H    2392 MOH     0.0372 ****
14655 C1     -7.425533   14.774750  -17.485761 C    2392 MOH     0.1166 ****
14656 HC2    -6.646687   14.012143  -17.464548 H    2392 MOH     0.0372 ****
14657 HC3    -8.210729   14.495917  -18.187918 H    2392 MOH     0.0372 ****
14658 O1     -8.021358   14.919270  -16.229939 O    2392 MOH    -0.6497 ****
14659 HO1    -7.400707   15.368343  -15.651526 H    2392 MOH     0.4215 ****
14660 HC1    -2.703962    1.846344  -28.090948 H    2393 MOH     0.0372 ****
14661 C1     -1.866227    2.074554  -28.750679 C    2393 MOH     0.1166 ****
14662 HC2    -1.508847    3.075987  -28.515212 H    2393 MOH     0.0372 ****
14663 HC3    -2.216678    2.029647  -29.781641 H    2393 MOH     0.0372 ****
14664 O1     -0.785427    1.132726  -28.546325 O    2393 MOH    -0.6497 ****
14665 HO1     0.047689    1.520970  -28.824218 H    2393 MOH     0.4215 ****
14666 HC1    -8.510374   12.701666  -28.475615 H    2394 MOH     0.0372 ****
14667 C1     -8.822143   13.745148  -28.510970 C    2394 MOH     0.1166 ****
14668 HC2    -8.016162   14.402428  -28.182872 H    2394 MOH     0.0372 ****
14669 HC3    -9.665074   13.868439  -27.832147 H    2394 MOH     0.0372 ****
14670 O1     -9.275363   14.091343  -29.804975 O    2394 MOH    -0.6497 ****
14671 HO1    -9.486673   15.027048  -29.775277 H    2394 MOH     0.4215 ****
14672 HC1    -1.814265   20.715171  -20.978161 H    2395 MOH     0.0372 ****
14673 C1     -0.888773   21.014826  -20.484601 C    2395 MOH     0.1166 ****
14674 HC2    -0.444790   20.160770  -19.972655 H    2395 MOH     0.0372 ****
14675 HC3    -1.134724   21.766819  -19.735068 H    2395 MOH     0.0372 ****
14676 O1     -0.006582   21.514113  -21.510613 O    2395 MOH    -0.6497 ****
14677 HO1    -0.197107   22.452268  -21.585566 H    2395 MOH     0.4215 ****
14678 HC1   -12.785075   11.872513  -27.658906 H    2396 MOH     0.0372 ****
14679 C1    -12.013735   11.579391  -26.946143 C    2396 MOH     0.1166 ****
14680 HC2   -11.115955   11.323011  -27.509000 H    2396 MOH     0.0372 ****
14681 HC3   -12.343979   10.691043  -26.407327 H    2396 MOH     0.0372 ****
14682 O1    -11.753350   12.656758  -26.037510 O    2396 MOH    -0.6497 ****
14683 HO1   -12.419612   12.631855  -25.346667 H    2396 MOH     0.4215 ****
14684 HC1   -12.914402   12.483253  -21.775778 H    2397 MOH     0.0372 ****
14685 C1    -12.431159   12.332609  -22.740979 C    2397 MOH     0.1166 ****
14686 HC2   -11.975630   11.343015  -22.760778 H    2397 MOH     0.0372 ****
14687 HC3   -11.670789   13.101749  -22.879571 H    2397 MOH     0.0372 ****
14688 O1    -13.462307   12.382007  -23.727393 O    2397 MOH    -0.6497 ****
14689 HO1   -13.974994   13.182990  -23.597285 H    2397 MOH     0.4215 ****
14690 HC1     2.018070   25.414762  -19.650215 H    2398 MOH     0.0372 ****
14691 C1      3.010535   25.435583  -20.100642 C    2398 MOH     0.1166 ****
14692 HC2     3.533615   26.346793  -19.810728 H    2398 MOH     0.0372 ****
14693 HC3     2.950491   25.380061  -21.186758 H    2398 MOH     0.0372 ****
14694 O1      3.745502   24.370871  -19.652336 O    2398 MOH    -0.6497 ****
14695 HO1     3.298633   23.574787  -19.947907 H    2398 MOH     0.4215 ****
14696 HC1     1.320054   27.885073  -20.828962 H    2399 MOH     0.0372 ****
14697 C1      0.926878   28.319857  -19.910430 C    2399 MOH     0.1166 ****
14698 HC2     0.742704   29.384569  -20.051851 H    2399 MOH     0.0372 ****
14699 HC3     1.626049   28.175746  -19.086651 H    2399 MOH     0.0372 ****
14700 O1     -0.237637   27.658903  -19.581625 O    2399 MOH    -0.6497 ****
14701 HO1    -0.661990   28.108385  -18.846941 H    2399 MOH     0.4215 ****
14702 HC1     0.852400   28.390892  -15.611221 H    2400 MOH     0.0372 ****
14703 C1      1.746716   27.948351  -15.171400 C    2400 MOH     0.1166 ****
14704 HC2     1.812534   28.221469  -14.118518 H    2400 MOH     0.0372 ****
14705 HC3     2.636990   28.318224  -15.680517 H    2400 MOH     0.0372 ****
14706 O1      1.695331   26.535812  -15.287366 O    2400 MOH    -0.6497 ****
14707 HO1     2.600617   26.227585  -15.198978 H    2400 MOH     0.4215 ****
14708 HC1     4.583238   32.133713  -17.808909 H    2401 MOH     0.0372 ****
14709 C1      4.172742   31.177187  -17.485761 C    2401 MOH     0.1166 ****
14710 HC2     4.951587   30.414579  -17.464548 H    2401 MOH     0.0372 ****
14711 HC3     3.387545   30.898353  -18.187918 H    2401 MOH     0.0372 ****
14712 O1      3.576916   31.321707  -16.229939 O    2401 MOH    -0.6497 ****
14713 HO1     4.197568   31.770780  -15.651526 H    2401 MOH     0.4215 ****
14714 HC1     0.420658    0.512841  -31.813724 H    2402 MOH     0.0372 ****
14715 C1     -0.290638   -0.313045  -31.824331 C    2402 MOH     0.1166 ****
14716 HC2     0.071361   -1.044218  -32.547701 H    2402 MOH     0.0372 ****
14717 HC3    -1.279639    0.059277  -32.094445 H    2402 MOH     0.0372 ****
14718 O1     -0.354146   -0.886634  -30.539518 O    2402 MOH    -0.6497 ****
14719 HO1    -0.630120   -0.202818  -29.925042 H    2402 MOH     0.4215 ****
14720 HC1     2.997949   -4.620064  -34.634373 H    2403 MOH     0.0372 ****
14721 C1      2.745070   -3.755395  -34.020604 C    2403 MOH     0.1166 ****
14722 HC2     3.552783   -3.572091  -33.312790 H    2403 MOH     0.0372 ****
14723 HC3     1.827083   -3.988096  -33.481789 H    2403 MOH     0.0372 ****
14724 O1      2.552812   -2.647000  -34.876911 O    2403 MOH    -0.6497 ****
14725 HO1     1.867498   -2.918077  -35.492093 H    2403 MOH     0.4215 ****
14726 HC1    -1.744983   -7.430446  -32.163742 H    2404 MOH     0.0372 ****
14727 C1     -1.520394   -6.364509  -32.113537 C    2404 MOH     0.1166 ****
14728 HC2    -1.879506   -5.816640  -32.984693 H    2404 MOH     0.0372 ****
14729 HC3    -0.434398   -6.317969  -32.185662 H    2404 MOH     0.0372 ****
14730 O1     -1.881238   -5.766426  -30.847109 O    2404 MOH    -0.6497 ****
14731 HO1    -1.953407   -4.817657  -30.972974 H    2404 MOH     0.4215 ****
14732 HC1    -0.545249    0.587142  -36.257183 H    2405 MOH     0.0372 ****
14733 C1     -0.857018    0.168280  -35.299760 C    2405 MOH     0.1166 ****
14734 HC2    -1.384139    0.914558  -34.707205 H    2405 MOH     0.0372 ****
14735 HC3     0.035565   -0.165259  -34.771552 H    2405 MOH     0.0372 ****
14736 O1     -1.671660   -0.945830  -35.526742 O    2405 MOH    -0.6497 ****
14737 HO1    -2.357552   -0.704555  -36.152531 H    2405 MOH     0.4215 ****
14738 HC1    -3.795154   -1.674553  -31.380975 H    2406 MOH     0.0372 ****
14739 C1     -3.357522   -2.578007  -31.805946 C    2406 MOH     0.1166 ****
14740 HC2    -3.113881   -2.382864  -32.849635 H    2406 MOH     0.0372 ****
14741 HC3    -4.063044   -3.404301  -31.712608 H    2406 MOH     0.0372 ****
14742 O1     -2.221297   -2.875620  -31.058534 O    2406 MOH    -0.6497 ****
14743 HO1    -1.593717   -2.149754  -31.106617 H    2406 MOH     0.4215 ****
14744 HC1     2.018070    0.811107  -33.855141 H    2407 MOH     0.0372 ****
14745 C1      3.010536    0.831928  -34.305568 C    2407 MOH     0.1166 ****
14746 HC2     3.533615    1.743138  -34.015655 H    2407 MOH     0.0372 ****
14747 HC3     2.950491    0.776406  -35.391684 H    2407 MOH     0.0372 ****
14748 O1      3.745502   -0.232783  -33.857263 O    2407 MOH    -0.6497 ****
14749 HO1     3.298633   -1.028868  -34.152833 H    2407 MOH     0.4215 ****
14750 HC1     1.320054    3.281418  -35.033888 H    2408 MOH     0.0372 ****
14751 C1      0.926878    3.716202  -34.115357 C    2408 MOH     0.1166 ****
14752 HC2     0.742704    4.780914  -34.256778 H    2408 MOH     0.0372 ****
14753 HC3     1.626050    3.572091  -33.291577 H    2408 MOH     0.0372 ****
14754 O1     -0.237637    3.055248  -33.786552 O    2408 MOH    -0.6497 ****
14755 HO1    -0.661990    3.504730  -33.051868 H    2408 MOH     0.4215 ****
14756 HC1     0.852400    3.787238  -29.816147 H    2409 MOH     0.0372 ****
14757 C1      1.746716    3.344696  -29.376327 C    2409 MOH     0.1166 ****
14758 HC2     1.812534    3.617815  -28.323445 H    2409 MOH     0.0372 ****
14759 HC3     2.636990    3.714569  -29.885444 H    2409 MOH     0.0372 ****
14760 O1      1.695332    1.932157  -29.492292 O    2409 MOH    -0.6497 ****
14761 HO1     2.600617    1.623930  -29.403904 H    2409 MOH     0.4215 ****
14762 HC1     4.583238    7.530058  -32.013835 H    2410 MOH     0.0372 ****
14763 C1      4.172742    6.573532  -31.690687 C    2410 MOH     0.1166 ****
14764 HC2     4.951587    5.810924  -31.669474 H    2410 MOH     0.0372 ****
14765 HC3     3.387545    6.294699  -32.392844 H    2410 MOH     0.0372 ****
14766 O1      3.576916    6.718052  -30.434866 O    2410 MOH    -0.6497 ****
14767 HO1     4.197568    7.167125  -29.856452 H    2410 MOH     0.4215 ****
@<TRIPOS>BOND
    1   354   353 1
    2   355   353 1
    3   356   353 1
    4   357   356 1
    5   358   357 1
    6   359   358 1
    7   360   359 1
    8   361   360 1
    9   362   361 1
   10   362   358 1
   11   363   362 1
   12   364   360 1
   13   365   360 1
   14   366   359 1
   15   367   359 1
   16   368   358 1
   17   369   357 1
   18   370   356 1
   19   309   308 1
   20   310   308 1
   21   311   310 1
   22   312   310 1
   23   313   312 1
   24   314   313 1
   25   315   314 1
   26   316   315 1
   27   317   316 1
   28   318   317 1
   29   319   318 1
   30   320   318 1
   31   321   320 1
   32   322   321 1
   33   323   321 1
   34   324   321 1
   35   325   317 1
   36   326   317 1
   37   327   316 1
   38   328   316 1
   39   329   314 1
   40   330   314 1
   41   331   313 1
   42   332   313 1
   43   333   312 1
   44   334   312 1
   45   335   334 1
   46   336   334 1
   47   337   336 1
   48   338   336 1
   49   339   338 1
   50   340   338 1
   51   341   338 1
   52   342   341 1
   53   343   341 1
   54   344   341 1
   55   345   344 1
   56   346   345 1
   57   347   345 1
   58   348   347 1
   59   349   347 1
   60   350   347 1
   61   350   353 1
   62   351   350 1
   63   352   350 1
   64   261   260 1
   65   262   260 1
   66   263   262 1
   67   264   262 1
   68   265   264 1
   69   266   265 1
   70   267   266 1
   71   268   267 1
   72   269   268 1
   73   270   269 1
   74   271   270 1
   75   272   270 1
   76   273   272 1
   77   274   273 1
   78   275   273 1
   79   276   273 1
   80   277   269 1
   81   278   269 1
   82   279   268 1
   83   280   268 1
   84   281   266 1
   85   282   266 1
   86   283   265 1
   87   284   265 1
   88   285   264 1
   89   286   264 1
   90   287   286 1
   91   288   286 1
   92   289   288 1
   93   290   288 1
   94   291   290 1
   95   292   290 1
   96   293   290 1
   97   294   293 1
   98   295   293 1
   99   296   293 1
  100   297   296 1
  101   298   297 1
  102   299   297 1
  103   300   299 1
  104   301   299 1
  105   302   299 1
  106   303   302 1
  107   304   302 1
  108   305   302 1
  109   305   308 1
  110   306   305 1
  111   307   305 1
  112   213   212 1
  113   214   212 1
  114   215   214 1
  115   216   214 1
  116   217   216 1
  117   218   217 1
  118   219   218 1
  119   220   219 1
  120   221   220 1
  121   222   221 1
  122   223   222 1
  123   224   222 1
  124   225   224 1
  125   226   225 1
  126   227   225 1
  127   228   225 1
  128   229   221 1
  129   230   221 1
  130   231   220 1
  131   232   220 1
  132   233   218 1
  133   234   218 1
  134   235   217 1
  135   236   217 1
  136   237   216 1
  137   238   216 1
  138   239   238 1
  139   240   238 1
  140   241   240 1
  141   242   240 1
  142   243   242 1
  143   244   242 1
  144   245   242 1
  145   246   245 1
  146   247   245 1
  147   248   245 1
  148   249   248 1
  149   250   249 1
  150   251   249 1
  151   252   251 1
  152   253   251 1
  153   254   251 1
  154   255   254 1
  155   256   254 1
  156   257   254 1
  157   257   260 1
  158   258   257 1
  159   259   257 1
  160   162   161 1
  161   163   161 1
  162   164   163 1
  163   165   163 1
  164   166   165 1
  165   167   166 1
  166   168   167 1
  167   169   168 1
  168   170   169 1
  169   171   170 1
  170   172   171 1
  171   173   172 1
  172   174   173 1
  173   175   174 1
  174   176   175 1
  175   176   171 1
  176   177   175 1
  177   178   174 1
  178   179   173 1
  179   180   172 1
  180   181   170 1
  181   182   170 1
  182   183   169 1
  183   184   169 1
  184   185   167 1
  185   186   167 1
  186   187   166 1
  187   188   166 1
  188   189   165 1
  189   190   165 1
  190   191   190 1
  191   192   190 1
  192   193   192 1
  193   194   192 1
  194   195   194 1
  195   196   194 1
  196   197   194 1
  197   198   197 1
  198   199   197 1
  199   200   197 1
  200   201   200 1
  201   202   201 1
  202   203   201 1
  203   204   203 1
  204   205   203 1
  205   206   203 1
  206   207   206 1
  207   208   206 1
  208   209   206 1
  209   209   212 1
  210   210   209 1
  211   211   209 1
  212   114   113 1
  213   115   113 1
  214   116   115 1
  215   117   115 1
  216   118   117 1
  217   119   118 1
  218   120   119 1
  219   121   120 1
  220   122   121 1
  221   123   122 1
  222   124   123 1
  223   125   123 1
  224   126   125 1
  225   127   126 1
  226   128   126 1
  227   129   126 1
  228   130   122 1
  229   131   122 1
  230   132   121 1
  231   133   121 1
  232   134   119 1
  233   135   119 1
  234   136   118 1
  235   137   118 1
  236   138   117 1
  237   139   117 1
  238   140   139 1
  239   141   139 1
  240   142   141 1
  241   143   141 1
  242   144   143 1
  243   145   143 1
  244   146   143 1
  245   147   146 1
  246   148   146 1
  247   149   146 1
  248   150   149 1
  249   151   150 1
  250   152   150 1
  251   153   152 1
  252   154   152 1
  253   155   152 1
  254   156   155 1
  255   157   155 1
  256   158   155 1
  257   158   161 1
  258   159   158 1
  259   160   158 1
  260    66    65 1
  261    67    65 1
  262    68    67 1
  263    69    67 1
  264    70    69 1
  265    71    70 1
  266    72    71 1
  267    73    72 1
  268    74    73 1
  269    75    74 1
  270    76    75 1
  271    77    75 1
  272    78    77 1
  273    79    78 1
  274    80    78 1
  275    81    78 1
  276    82    74 1
  277    83    74 1
  278    84    73 1
  279    85    73 1
  280    86    71 1
  281    87    71 1
  282    88    70 1
  283    89    70 1
  284    90    69 1
  285    91    69 1
  286    92    91 1
  287    93    91 1
  288    94    93 1
  289    95    93 1
  290    96    95 1
  291    97    95 1
  292    98    95 1
  293    99    98 1
  294   100    98 1
  295   101    98 1
  296   102   101 1
  297   103   102 1
  298   104   102 1
  299   105   104 1
  300   106   104 1
  301   107   104 1
  302   108   107 1
  303   109   107 1
  304   110   107 1
  305   110   113 1
  306   111   110 1
  307   112   110 1
  308    15    14 1
  309    16    14 1
  310    17    16 1
  311    18    16 1
  312    19    18 1
  313    20    19 1
  314    21    20 1
  315    22    21 1
  316    23    22 1
  317    24    23 1
  318    25    24 1
  319    26    25 1
  320    27    26 1
  321    28    27 1
  322    29    28 1
  323    29    24 1
  324    30    28 1
  325    31    27 1
  326    32    26 1
  327    33    25 1
  328    34    23 1
  329    35    23 1
  330    36    22 1
  331    37    22 1
  332    38    20 1
  333    39    20 1
  334    40    19 1
  335    41    19 1
  336    42    18 1
  337    43    18 1
  338    44    43 1
  339    45    43 1
  340    46    45 1
  341    47    45 1
  342    48    47 1
  343    49    47 1
  344    50    47 1
  345    51    50 1
  346    52    50 1
  347    53    50 1
  348    54    53 1
  349    55    54 1
  350    56    54 1
  351    57    56 1
  352    58    56 1
  353    59    56 1
  354    60    59 1
  355    61    59 1
  356    62    59 1
  357    62    65 1
  358    63    62 1
  359    64    62 1
  360     2     1 1
  361     3     1 1
  362     4     3 1
  363     5     3 1
  364     6     5 1
  365     7     5 1
  366     8     5 1
  367     9     8 1
  368    10     8 1
  369    11     8 1
  370    11    14 1
  371    12    11 1
  372    13    11 1
  373   372   371 1
  374   373   371 1
  375   374   371 1
  376   375   371 1
  377   376   371 1
  378   377   371 1
  379   381   380 1
  380   382   381 1
  381   383   381 1
  382   384   381 1
  383   385   384 1
  384   387   386 1
  385   388   387 1
  386   389   387 1
  387   390   387 1
  388   391   390 1
  389   393   392 1
  390   394   393 1
  391   395   393 1
  392   396   393 1
  393   397   396 1
  394   399   398 1
  395   400   399 1
  396   401   399 1
  397   402   399 1
  398   403   402 1
  399   405   404 1
  400   406   405 1
  401   407   405 1
  402   408   405 1
  403   409   408 1
  404   411   410 1
  405   412   411 1
  406   413   411 1
  407   414   411 1
  408   415   414 1
  409   417   416 1
  410   418   417 1
  411   419   417 1
  412   420   417 1
  413   421   420 1
  414   423   422 1
  415   424   423 1
  416   425   423 1
  417   426   423 1
  418   427   426 1
  419   429   428 1
  420   430   429 1
  421   431   429 1
  422   432   429 1
  423   433   432 1
  424   435   434 1
  425   436   435 1
  426   437   435 1
  427   438   435 1
  428   439   438 1
  429   441   440 1
  430   442   441 1
  431   443   441 1
  432   444   441 1
  433   445   444 1
  434   447   446 1
  435   448   447 1
  436   449   447 1
  437   450   447 1
  438   451   450 1
  439   453   452 1
  440   454   453 1
  441   455   453 1
  442   456   453 1
  443   457   456 1
  444   459   458 1
  445   460   459 1
  446   461   459 1
  447   462   459 1
  448   463   462 1
  449   465   464 1
  450   466   465 1
  451   467   465 1
  452   468   465 1
  453   469   468 1
  454   471   470 1
  455   472   471 1
  456   473   471 1
  457   474   471 1
  458   475   474 1
  459   477   476 1
  460   478   477 1
  461   479   477 1
  462   480   477 1
  463   481   480 1
  464   483   482 1
  465   484   483 1
  466   485   483 1
  467   486   483 1
  468   487   486 1
  469   489   488 1
  470   490   489 1
  471   491   489 1
  472   492   489 1
  473   493   492 1
  474   495   494 1
  475   496   495 1
  476   497   495 1
  477   498   495 1
  478   499   498 1
  479   501   500 1
  480   502   501 1
  481   503   501 1
  482   504   501 1
  483   505   504 1
  484   507   506 1
  485   508   507 1
  486   509   507 1
  487   510   507 1
  488   511   510 1
  489   513   512 1
  490   514   513 1
  491   515   513 1
  492   516   513 1
  493   517   516 1
  494   519   518 1
  495   520   519 1
  496   521   519 1
  497   522   519 1
  498   523   522 1
  499   525   524 1
  500   526   525 1
  501   527   525 1
  502   528   525 1
  503   529   528 1
  504   531   530 1
  505   532   531 1
  506   533   531 1
  507   534   531 1
  508   535   534 1
  509   537   536 1
  510   538   537 1
  511   539   537 1
  512   540   537 1
  513   541   540 1
  514   543   542 1
  515   544   543 1
  516   545   543 1
  517   546   543 1
  518   547   546 1
  519   549   548 1
  520   550   549 1
  521   551   549 1
  522   552   549 1
  523   553   552 1
  524   555   554 1
  525   556   555 1
  526   557   555 1
  527   558   555 1
  528   559   558 1
  529   561   560 1
  530   562   561 1
  531   563   561 1
  532   564   561 1
  533   565   564 1
  534   567   566 1
  535   568   567 1
  536   569   567 1
  537   570   567 1
  538   571   570 1
  539   573   572 1
  540   574   573 1
  541   575   573 1
  542   576   573 1
  543   577   576 1
  544   579   578 1
  545   580   579 1
  546   581   579 1
  547   582   579 1
  548   583   582 1
  549   585   584 1
  550   586   585 1
  551   587   585 1
  552   588   585 1
  553   589   588 1
  554   591   590 1
  555   592   591 1
  556   593   591 1
  557   594   591 1
  558   595   594 1
  559   597   596 1
  560   598   597 1
  561   599   597 1
  562   600   597 1
  563   601   600 1
  564   603   602 1
  565   604   603 1
  566   605   603 1
  567   606   603 1
  568   607   606 1
  569   609   608 1
  570   610   609 1
  571   611   609 1
  572   612   609 1
  573   613   612 1
  574   615   614 1
  575   616   615 1
  576   617   615 1
  577   618   615 1
  578   619   618 1
  579   621   620 1
  580   622   621 1
  581   623   621 1
  582   624   621 1
  583   625   624 1
  584   627   626 1
  585   628   627 1
  586   629   627 1
  587   630   627 1
  588   631   630 1
  589   633   632 1
  590   634   633 1
  591   635   633 1
  592   636   633 1
  593   637   636 1
  594   639   638 1
  595   640   639 1
  596   641   639 1
  597   642   639 1
  598   643   642 1
  599   645   644 1
  600   646   645 1
  601   647   645 1
  602   648   645 1
  603   649   648 1
  604   651   650 1
  605   652   651 1
  606   653   651 1
  607   654   651 1
  608   655   654 1
  609   657   656 1
  610   658   657 1
  611   659   657 1
  612   660   657 1
  613   661   660 1
  614   663   662 1
  615   664   663 1
  616   665   663 1
  617   666   663 1
  618   667   666 1
  619   669   668 1
  620   670   669 1
  621   671   669 1
  622   672   669 1
  623   673   672 1
  624   675   674 1
  625   676   675 1
  626   677   675 1
  627   678   675 1
  628   679   678 1
  629   681   680 1
  630   682   681 1
  631   683   681 1
  632   684   681 1
  633   685   684 1
  634   687   686 1
  635   688   687 1
  636   689   687 1
  637   690   687 1
  638   691   690 1
  639   693   692 1
  640   694   693 1
  641   695   693 1
  642   696   693 1
  643   697   696 1
  644   699   698 1
  645   700   699 1
  646   701   699 1
  647   702   699 1
  648   703   702 1
  649   705   704 1
  650   706   705 1
  651   707   705 1
  652   708   705 1
  653   709   708 1
  654   711   710 1
  655   712   711 1
  656   713   711 1
  657   714   711 1
  658   715   714 1
  659   717   716 1
  660   718   717 1
  661   719   717 1
  662   720   717 1
  663   721   720 1
  664   723   722 1
  665   724   723 1
  666   725   723 1
  667   726   723 1
  668   727   726 1
  669   729   728 1
  670   730   729 1
  671   731   729 1
  672   732   729 1
  673   733   732 1
  674   735   734 1
  675   736   735 1
  676   737   735 1
  677   738   735 1
  678   739   738 1
  679   741   740 1
  680   742   741 1
  681   743   741 1
  682   744   741 1
  683   745   744 1
  684   747   746 1
  685   748   747 1
  686   749   747 1
  687   750   747 1
  688   751   750 1
  689   753   752 1
  690   754   753 1
  691   755   753 1
  692   756   753 1
  693   757   756 1
  694   759   758 1
  695   760   759 1
  696   761   759 1
  697   762   759 1
  698   763   762 1
  699   765   764 1
  700   766   765 1
  701   767   765 1
  702   768   765 1
  703   769   768 1
  704   771   770 1
  705   772   771 1
  706   773   771 1
  707   774   771 1
  708   775   774 1
  709   777   776 1
  710   778   777 1
  711   779   777 1
  712   780   777 1
  713   781   780 1
  714   783   782 1
  715   784   783 1
  716   785   783 1
  717   786   783 1
  718   787   786 1
  719   789   788 1
  720   790   789 1
  721   791   789 1
  722   792   789 1
  723   793   792 1
  724   795   794 1
  725   796   795 1
  726   797   795 1
  727   798   795 1
  728   799   798 1
  729   801   800 1
  730   802   801 1
  731   803   801 1
  732   804   801 1
  733   805   804 1
  734   807   806 1
  735   808   807 1
  736   809   807 1
  737   810   807 1
  738   811   810 1
  739   813   812 1
  740   814   813 1
  741   815   813 1
  742   816   813 1
  743   817   816 1
  744   819   818 1
  745   820   819 1
  746   821   819 1
  747   822   819 1
  748   823   822 1
  749   825   824 1
  750   826   825 1
  751   827   825 1
  752   828   825 1
  753   829   828 1
  754   831   830 1
  755   832   831 1
  756   833   831 1
  757   834   831 1
  758   835   834 1
  759   837   836 1
  760   838   837 1
  761   839   837 1
  762   840   837 1
  763   841   840 1
  764   843   842 1
  765   844   843 1
  766   845   843 1
  767   846   843 1
  768   847   846 1
  769   849   848 1
  770   850   849 1
  771   851   849 1
  772   852   849 1
  773   853   852 1
  774   855   854 1
  775   856   855 1
  776   857   855 1
  777   858   855 1
  778   859   858 1
  779   861   860 1
  780   862   861 1
  781   863   861 1
  782   864   861 1
  783   865   864 1
  784   867   866 1
  785   868   867 1
  786   869   867 1
  787   870   867 1
  788   871   870 1
  789   873   872 1
  790   874   873 1
  791   875   873 1
  792   876   873 1
  793   877   876 1
  794   879   878 1
  795   880   879 1
  796   881   879 1
  797   882   879 1
  798   883   882 1
  799   885   884 1
  800   886   885 1
  801   887   885 1
  802   888   885 1
  803   889   888 1
  804   891   890 1
  805   892   891 1
  806   893   891 1
  807   894   891 1
  808   895   894 1
  809   897   896 1
  810   898   897 1
  811   899   897 1
  812   900   897 1
  813   901   900 1
  814   903   902 1
  815   904   903 1
  816   905   903 1
  817   906   903 1
  818   907   906 1
  819   909   908 1
  820   910   909 1
  821   911   909 1
  822   912   909 1
  823   913   912 1
  824   915   914 1
  825   916   915 1
  826   917   915 1
  827   918   915 1
  828   919   918 1
  829   921   920 1
  830   922   921 1
  831   923   921 1
  832   924   921 1
  833   925   924 1
  834   927   926 1
  835   928   927 1
  836   929   927 1
  837   930   927 1
  838   931   930 1
  839   933   932 1
  840   934   933 1
  841   935   933 1
  842   936   933 1
  843   937   936 1
  844   939   938 1
  845   940   939 1
  846   941   939 1
  847   942   939 1
  848   943   942 1
  849   945   944 1
  850   946   945 1
  851   947   945 1
  852   948   945 1
  853   949   948 1
  854   951   950 1
  855   952   951 1
  856   953   951 1
  857   954   951 1
  858   955   954 1
  859   957   956 1
  860   958   957 1
  861   959   957 1
  862   960   957 1
  863   961   960 1
  864   963   962 1
  865   964   963 1
  866   965   963 1
  867   966   963 1
  868   967   966 1
  869   969   968 1
  870   970   969 1
  871   971   969 1
  872   972   969 1
  873   973   972 1
  874   975   974 1
  875   976   975 1
  876   977   975 1
  877   978   975 1
  878   979   978 1
  879   981   980 1
  880   982   981 1
  881   983   981 1
  882   984   981 1
  883   985   984 1
  884   987   986 1
  885   988   987 1
  886   989   987 1
  887   990   987 1
  888   991   990 1
  889   993   992 1
  890   994   993 1
  891   995   993 1
  892   996   993 1
  893   997   996 1
  894   999   998 1
  895  1000   999 1
  896  1001   999 1
  897  1002   999 1
  898  1003  1002 1
  899  1005  1004 1
  900  1006  1005 1
  901  1007  1005 1
  902  1008  1005 1
  903  1009  1008 1
  904  1011  1010 1
  905  1012  1011 1
  906  1013  1011 1
  907  1014  1011 1
  908  1015  1014 1
  909  1017  1016 1
  910  1018  1017 1
  911  1019  1017 1
  912  1020  1017 1
  913  1021  1020 1
  914  1023  1022 1
  915  1024  1023 1
  916  1025  1023 1
  917  1026  1023 1
  918  1027  1026 1
  919  1029  1028 1
  920  1030  1029 1
  921  1031  1029 1
  922  1032  1029 1
  923  1033  1032 1
  924  1035  1034 1
  925  1036  1035 1
  926  1037  1035 1
  927  1038  1035 1
  928  1039  1038 1
  929  1041  1040 1
  930  1042  1041 1
  931  1043  1041 1
  932  1044  1041 1
  933  1045  1044 1
  934  1047  1046 1
  935  1048  1047 1
  936  1049  1047 1
  937  1050  1047 1
  938  1051  1050 1
  939  1053  1052 1
  940  1054  1053 1
  941  1055  1053 1
  942  1056  1053 1
  943  1057  1056 1
  944  1059  1058 1
  945  1060  1059 1
  946  1061  1059 1
  947  1062  1059 1
  948  1063  1062 1
  949  1065  1064 1
  950  1066  1065 1
  951  1067  1065 1
  952  1068  1065 1
  953  1069  1068 1
  954  1071  1070 1
  955  1072  1071 1
  956  1073  1071 1
  957  1074  1071 1
  958  1075  1074 1
  959  1077  1076 1
  960  1078  1077 1
  961  1079  1077 1
  962  1080  1077 1
  963  1081  1080 1
  964  1083  1082 1
  965  1084  1083 1
  966  1085  1083 1
  967  1086  1083 1
  968  1087  1086 1
  969  1089  1088 1
  970  1090  1089 1
  971  1091  1089 1
  972  1092  1089 1
  973  1093  1092 1
  974  1095  1094 1
  975  1096  1095 1
  976  1097  1095 1
  977  1098  1095 1
  978  1099  1098 1
  979  1101  1100 1
  980  1102  1101 1
  981  1103  1101 1
  982  1104  1101 1
  983  1105  1104 1
  984  1107  1106 1
  985  1108  1107 1
  986  1109  1107 1
  987  1110  1107 1
  988  1111  1110 1
  989  1113  1112 1
  990  1114  1113 1
  991  1115  1113 1
  992  1116  1113 1
  993  1117  1116 1
  994  1119  1118 1
  995  1120  1119 1
  996  1121  1119 1
  997  1122  1119 1
  998  1123  1122 1
  999  1125  1124 1
 1000  1126  1125 1
 1001  1127  1125 1
 1002  1128  1125 1
 1003  1129  1128 1
 1004  1131  1130 1
 1005  1132  1131 1
 1006  1133  1131 1
 1007  1134  1131 1
 1008  1135  1134 1
 1009  1137  1136 1
 1010  1138  1137 1
 1011  1139  1137 1
 1012  1140  1137 1
 1013  1141  1140 1
 1014  1143  1142 1
 1015  1144  1143 1
 1016  1145  1143 1
 1017  1146  1143 1
 1018  1147  1146 1
 1019  1149  1148 1
 1020  1150  1149 1
 1021  1151  1149 1
 1022  1152  1149 1
 1023  1153  1152 1
 1024  1155  1154 1
 1025  1156  1155 1
 1026  1157  1155 1
 1027  1158  1155 1
 1028  1159  1158 1
 1029  1161  1160 1
 1030  1162  1161 1
 1031  1163  1161 1
 1032  1164  1161 1
 1033  1165  1164 1
 1034  1167  1166 1
 1035  1168  1167 1
 1036  1169  1167 1
 1037  1170  1167 1
 1038  1171  1170 1
 1039  1173  1172 1
 1040  1174  1173 1
 1041  1175  1173 1
 1042  1176  1173 1
 1043  1177  1176 1
 1044  1179  1178 1
 1045  1180  1179 1
 1046  1181  1179 1
 1047  1182  1179 1
 1048  1183  1182 1
 1049  1185  1184 1
 1050  1186  1185 1
 1051  1187  1185 1
 1052  1188  1185 1
 1053  1189  1188 1
 1054  1191  1190 1
 1055  1192  1191 1
 1056  1193  1191 1
 1057  1194  1191 1
 1058  1195  1194 1
 1059  1197  1196 1
 1060  1198  1197 1
 1061  1199  1197 1
 1062  1200  1197 1
 1063  1201  1200 1
 1064  1203  1202 1
 1065  1204  1203 1
 1066  1205  1203 1
 1067  1206  1203 1
 1068  1207  1206 1
 1069  1209  1208 1
 1070  1210  1209 1
 1071  1211  1209 1
 1072  1212  1209 1
 1073  1213  1212 1
 1074  1215  1214 1
 1075  1216  1215 1
 1076  1217  1215 1
 1077  1218  1215 1
 1078  1219  1218 1
 1079  1221  1220 1
 1080  1222  1221 1
 1081  1223  1221 1
 1082  1224  1221 1
 1083  1225  1224 1
 1084  1227  1226 1
 1085  1228  1227 1
 1086  1229  1227 1
 1087  1230  1227 1
 1088  1231  1230 1
 1089  1233  1232 1
 1090  1234  1233 1
 1091  1235  1233 1
 1092  1236  1233 1
 1093  1237  1236 1
 1094  1239  1238 1
 1095  1240  1239 1
 1096  1241  1239 1
 1097  1242  1239 1
 1098  1243  1242 1
 1099  1245  1244 1
 1100  1246  1245 1
 1101  1247  1245 1
 1102  1248  1245 1
 1103  1249  1248 1
 1104  1251  1250 1
 1105  1252  1251 1
 1106  1253  1251 1
 1107  1254  1251 1
 1108  1255  1254 1
 1109  1257  1256 1
 1110  1258  1257 1
 1111  1259  1257 1
 1112  1260  1257 1
 1113  1261  1260 1
 1114  1263  1262 1
 1115  1264  1263 1
 1116  1265  1263 1
 1117  1266  1263 1
 1118  1267  1266 1
 1119  1269  1268 1
 1120  1270  1269 1
 1121  1271  1269 1
 1122  1272  1269 1
 1123  1273  1272 1
 1124  1275  1274 1
 1125  1276  1275 1
 1126  1277  1275 1
 1127  1278  1275 1
 1128  1279  1278 1
 1129  1281  1280 1
 1130  1282  1281 1
 1131  1283  1281 1
 1132  1284  1281 1
 1133  1285  1284 1
 1134  1287  1286 1
 1135  1288  1287 1
 1136  1289  1287 1
 1137  1290  1287 1
 1138  1291  1290 1
 1139  1293  1292 1
 1140  1294  1293 1
 1141  1295  1293 1
 1142  1296  1293 1
 1143  1297  1296 1
 1144  1299  1298 1
 1145  1300  1299 1
 1146  1301  1299 1
 1147  1302  1299 1
 1148  1303  1302 1
 1149  1305  1304 1
 1150  1306  1305 1
 1151  1307  1305 1
 1152  1308  1305 1
 1153  1309  1308 1
 1154  1311  1310 1
 1155  1312  1311 1
 1156  1313  1311 1
 1157  1314  1311 1
 1158  1315  1314 1
 1159  1317  1316 1
 1160  1318  1317 1
 1161  1319  1317 1
 1162  1320  1317 1
 1163  1321  1320 1
 1164  1323  1322 1
 1165  1324  1323 1
 1166  1325  1323 1
 1167  1326  1323 1
 1168  1327  1326 1
 1169  1329  1328 1
 1170  1330  1329 1
 1171  1331  1329 1
 1172  1332  1329 1
 1173  1333  1332 1
 1174  1335  1334 1
 1175  1336  1335 1
 1176  1337  1335 1
 1177  1338  1335 1
 1178  1339  1338 1
 1179  1341  1340 1
 1180  1342  1341 1
 1181  1343  1341 1
 1182  1344  1341 1
 1183  1345  1344 1
 1184  1347  1346 1
 1185  1348  1347 1
 1186  1349  1347 1
 1187  1350  1347 1
 1188  1351  1350 1
 1189  1353  1352 1
 1190  1354  1353 1
 1191  1355  1353 1
 1192  1356  1353 1
 1193  1357  1356 1
 1194  1359  1358 1
 1195  1360  1359 1
 1196  1361  1359 1
 1197  1362  1359 1
 1198  1363  1362 1
 1199  1365  1364 1
 1200  1366  1365 1
 1201  1367  1365 1
 1202  1368  1365 1
 1203  1369  1368 1
 1204  1371  1370 1
 1205  1372  1371 1
 1206  1373  1371 1
 1207  1374  1371 1
 1208  1375  1374 1
 1209  1377  1376 1
 1210  1378  1377 1
 1211  1379  1377 1
 1212  1380  1377 1
 1213  1381  1380 1
 1214  1383  1382 1
 1215  1384  1383 1
 1216  1385  1383 1
 1217  1386  1383 1
 1218  1387  1386 1
 1219  1389  1388 1
 1220  1390  1389 1
 1221  1391  1389 1
 1222  1392  1389 1
 1223  1393  1392 1
 1224  1395  1394 1
 1225  1396  1395 1
 1226  1397  1395 1
 1227  1398  1395 1
 1228  1399  1398 1
 1229  1401  1400 1
 1230  1402  1401 1
 1231  1403  1401 1
 1232  1404  1401 1
 1233  1405  1404 1
 1234  1407  1406 1
 1235  1408  1407 1
 1236  1409  1407 1
 1237  1410  1407 1
 1238  1411  1410 1
 1239  1413  1412 1
 1240  1414  1413 1
 1241  1415  1413 1
 1242  1416  1413 1
 1243  1417  1416 1
 1244  1419  1418 1
 1245  1420  1419 1
 1246  1421  1419 1
 1247  1422  1419 1
 1248  1423  1422 1
 1249  1425  1424 1
 1250  1426  1425 1
 1251  1427  1425 1
 1252  1428  1425 1
 1253  1429  1428 1
 1254  1431  1430 1
 1255  1432  1431 1
 1256  1433  1431 1
 1257  1434  1431 1
 1258  1435  1434 1
 1259  1437  1436 1
 1260  1438  1437 1
 1261  1439  1437 1
 1262  1440  1437 1
 1263  1441  1440 1
 1264  1443  1442 1
 1265  1444  1443 1
 1266  1445  1443 1
 1267  1446  1443 1
 1268  1447  1446 1
 1269  1449  1448 1
 1270  1450  1449 1
 1271  1451  1449 1
 1272  1452  1449 1
 1273  1453  1452 1
 1274  1455  1454 1
 1275  1456  1455 1
 1276  1457  1455 1
 1277  1458  1455 1
 1278  1459  1458 1
 1279  1461  1460 1
 1280  1462  1461 1
 1281  1463  1461 1
 1282  1464  1461 1
 1283  1465  1464 1
 1284  1467  1466 1
 1285  1468  1467 1
 1286  1469  1467 1
 1287  1470  1467 1
 1288  1471  1470 1
 1289  1473  1472 1
 1290  1474  1473 1
 1291  1475  1473 1
 1292  1476  1473 1
 1293  1477  1476 1
 1294  1479  1478 1
 1295  1480  1479 1
 1296  1481  1479 1
 1297  1482  1479 1
 1298  1483  1482 1
 1299  1485  1484 1
 1300  1486  1485 1
 1301  1487  1485 1
 1302  1488  1485 1
 1303  1489  1488 1
 1304  1491  1490 1
 1305  1492  1491 1
 1306  1493  1491 1
 1307  1494  1491 1
 1308  1495  1494 1
 1309  1497  1496 1
 1310  1498  1497 1
 1311  1499  1497 1
 1312  1500  1497 1
 1313  1501  1500 1
 1314  1503  1502 1
 1315  1504  1503 1
 1316  1505  1503 1
 1317  1506  1503 1
 1318  1507  1506 1
 1319  1509  1508 1
 1320  1510  1509 1
 1321  1511  1509 1
 1322  1512  1509 1
 1323  1513  1512 1
 1324  1515  1514 1
 1325  1516  1515 1
 1326  1517  1515 1
 1327  1518  1515 1
 1328  1519  1518 1
 1329  1521  1520 1
 1330  1522  1521 1
 1331  1523  1521 1
 1332  1524  1521 1
 1333  1525  1524 1
 1334  1527  1526 1
 1335  1528  1527 1
 1336  1529  1527 1
 1337  1530  1527 1
 1338  1531  1530 1
 1339  1533  1532 1
 1340  1534  1533 1
 1341  1535  1533 1
 1342  1536  1533 1
 1343  1537  1536 1
 1344  1539  1538 1
 1345  1540  1539 1
 1346  1541  1539 1
 1347  1542  1539 1
 1348  1543  1542 1
 1349  1545  1544 1
 1350  1546  1545 1
 1351  1547  1545 1
 1352  1548  1545 1
 1353  1549  1548 1
 1354  1551  1550 1
 1355  1552  1551 1
 1356  1553  1551 1
 1357  1554  1551 1
 1358  1555  1554 1
 1359  1557  1556 1
 1360  1558  1557 1
 1361  1559  1557 1
 1362  1560  1557 1
 1363  1561  1560 1
 1364  1563  1562 1
 1365  1564  1563 1
 1366  1565  1563 1
 1367  1566  1563 1
 1368  1567  1566 1
 1369  1569  1568 1
 1370  1570  1569 1
 1371  1571  1569 1
 1372  1572  1569 1
 1373  1573  1572 1
 1374  1575  1574 1
 1375  1576  1575 1
 1376  1577  1575 1
 1377  1578  1575 1
 1378  1579  1578 1
 1379  1581  1580 1
 1380  1582  1581 1
 1381  1583  1581 1
 1382  1584  1581 1
 1383  1585  1584 1
 1384  1587  1586 1
 1385  1588  1587 1
 1386  1589  1587 1
 1387  1590  1587 1
 1388  1591  1590 1
 1389  1593  1592 1
 1390  1594  1593 1
 1391  1595  1593 1
 1392  1596  1593 1
 1393  1597  1596 1
 1394  1599  1598 1
 1395  1600  1599 1
 1396  1601  1599 1
 1397  1602  1599 1
 1398  1603  1602 1
 1399  1605  1604 1
 1400  1606  1605 1
 1401  1607  1605 1
 1402  1608  1605 1
 1403  1609  1608 1
 1404  1611  1610 1
 1405  1612  1611 1
 1406  1613  1611 1
 1407  1614  1611 1
 1408  1615  1614 1
 1409  1617  1616 1
 1410  1618  1617 1
 1411  1619  1617 1
 1412  1620  1617 1
 1413  1621  1620 1
 1414  1623  1622 1
 1415  1624  1623 1
 1416  1625  1623 1
 1417  1626  1623 1
 1418  1627  1626 1
 1419  1629  1628 1
 1420  1630  1629 1
 1421  1631  1629 1
 1422  1632  1629 1
 1423  1633  1632 1
 1424  1635  1634 1
 1425  1636  1635 1
 1426  1637  1635 1
 1427  1638  1635 1
 1428  1639  1638 1
 1429  1641  1640 1
 1430  1642  1641 1
 1431  1643  1641 1
 1432  1644  1641 1
 1433  1645  1644 1
 1434  1647  1646 1
 1435  1648  1647 1
 1436  1649  1647 1
 1437  1650  1647 1
 1438  1651  1650 1
 1439  1653  1652 1
 1440  1654  1653 1
 1441  1655  1653 1
 1442  1656  1653 1
 1443  1657  1656 1
 1444  1659  1658 1
 1445  1660  1659 1
 1446  1661  1659 1
 1447  1662  1659 1
 1448  1663  1662 1
 1449  1665  1664 1
 1450  1666  1665 1
 1451  1667  1665 1
 1452  1668  1665 1
 1453  1669  1668 1
 1454  1671  1670 1
 1455  1672  1671 1
 1456  1673  1671 1
 1457  1674  1671 1
 1458  1675  1674 1
 1459  1677  1676 1
 1460  1678  1677 1
 1461  1679  1677 1
 1462  1680  1677 1
 1463  1681  1680 1
 1464  1683  1682 1
 1465  1684  1683 1
 1466  1685  1683 1
 1467  1686  1683 1
 1468  1687  1686 1
 1469  1689  1688 1
 1470  1690  1689 1
 1471  1691  1689 1
 1472  1692  1689 1
 1473  1693  1692 1
 1474  1695  1694 1
 1475  1696  1695 1
 1476  1697  1695 1
 1477  1698  1695 1
 1478  1699  1698 1
 1479  1701  1700 1
 1480  1702  1701 1
 1481  1703  1701 1
 1482  1704  1701 1
 1483  1705  1704 1
 1484  1707  1706 1
 1485  1708  1707 1
 1486  1709  1707 1
 1487  1710  1707 1
 1488  1711  1710 1
 1489  1713  1712 1
 1490  1714  1713 1
 1491  1715  1713 1
 1492  1716  1713 1
 1493  1717  1716 1
 1494  1719  1718 1
 1495  1720  1719 1
 1496  1721  1719 1
 1497  1722  1719 1
 1498  1723  1722 1
 1499  1725  1724 1
 1500  1726  1725 1
 1501  1727  1725 1
 1502  1728  1725 1
 1503  1729  1728 1
 1504  1731  1730 1
 1505  1732  1731 1
 1506  1733  1731 1
 1507  1734  1731 1
 1508  1735  1734 1
 1509  1737  1736 1
 1510  1738  1737 1
 1511  1739  1737 1
 1512  1740  1737 1
 1513  1741  1740 1
 1514  1743  1742 1
 1515  1744  1743 1
 1516  1745  1743 1
 1517  1746  1743 1
 1518  1747  1746 1
 1519  1749  1748 1
 1520  1750  1749 1
 1521  1751  1749 1
 1522  1752  1749 1
 1523  1753  1752 1
 1524  1755  1754 1
 1525  1756  1755 1
 1526  1757  1755 1
 1527  1758  1755 1
 1528  1759  1758 1
 1529  1761  1760 1
 1530  1762  1761 1
 1531  1763  1761 1
 1532  1764  1761 1
 1533  1765  1764 1
 1534  1767  1766 1
 1535  1768  1767 1
 1536  1769  1767 1
 1537  1770  1767 1
 1538  1771  1770 1
 1539  1773  1772 1
 1540  1774  1773 1
 1541  1775  1773 1
 1542  1776  1773 1
 1543  1777  1776 1
 1544  1779  1778 1
 1545  1780  1779 1
 1546  1781  1779 1
 1547  1782  1779 1
 1548  1783  1782 1
 1549  1785  1784 1
 1550  1786  1785 1
 1551  1787  1785 1
 1552  1788  1785 1
 1553  1789  1788 1
 1554  1791  1790 1
 1555  1792  1791 1
 1556  1793  1791 1
 1557  1794  1791 1
 1558  1795  1794 1
 1559  1797  1796 1
 1560  1798  1797 1
 1561  1799  1797 1
 1562  1800  1797 1
 1563  1801  1800 1
 1564  1803  1802 1
 1565  1804  1803 1
 1566  1805  1803 1
 1567  1806  1803 1
 1568  1807  1806 1
 1569  1809  1808 1
 1570  1810  1809 1
 1571  1811  1809 1
 1572  1812  1809 1
 1573  1813  1812 1
 1574  1815  1814 1
 1575  1816  1815 1
 1576  1817  1815 1
 1577  1818  1815 1
 1578  1819  1818 1
 1579  1821  1820 1
 1580  1822  1821 1
 1581  1823  1821 1
 1582  1824  1821 1
 1583  1825  1824 1
 1584  1827  1826 1
 1585  1828  1827 1
 1586  1829  1827 1
 1587  1830  1827 1
 1588  1831  1830 1
 1589  1833  1832 1
 1590  1834  1833 1
 1591  1835  1833 1
 1592  1836  1833 1
 1593  1837  1836 1
 1594  1839  1838 1
 1595  1840  1839 1
 1596  1841  1839 1
 1597  1842  1839 1
 1598  1843  1842 1
 1599  1845  1844 1
 1600  1846  1845 1
 1601  1847  1845 1
 1602  1848  1845 1
 1603  1849  1848 1
 1604  1851  1850 1
 1605  1852  1851 1
 1606  1853  1851 1
 1607  1854  1851 1
 1608  1855  1854 1
 1609  1857  1856 1
 1610  1858  1857 1
 1611  1859  1857 1
 1612  1860  1857 1
 1613  1861  1860 1
 1614  1863  1862 1
 1615  1864  1863 1
 1616  1865  1863 1
 1617  1866  1863 1
 1618  1867  1866 1
 1619  1869  1868 1
 1620  1870  1869 1
 1621  1871  1869 1
 1622  1872  1869 1
 1623  1873  1872 1
 1624  1875  1874 1
 1625  1876  1875 1
 1626  1877  1875 1
 1627  1878  1875 1
 1628  1879  1878 1
 1629  1881  1880 1
 1630  1882  1881 1
 1631  1883  1881 1
 1632  1884  1881 1
 1633  1885  1884 1
 1634  1887  1886 1
 1635  1888  1887 1
 1636  1889  1887 1
 1637  1890  1887 1
 1638  1891  1890 1
 1639  1893  1892 1
 1640  1894  1893 1
 1641  1895  1893 1
 1642  1896  1893 1
 1643  1897  1896 1
 1644  1899  1898 1
 1645  1900  1899 1
 1646  1901  1899 1
 1647  1902  1899 1
 1648  1903  1902 1
 1649  1905  1904 1
 1650  1906  1905 1
 1651  1907  1905 1
 1652  1908  1905 1
 1653  1909  1908 1
 1654  1911  1910 1
 1655  1912  1911 1
 1656  1913  1911 1
 1657  1914  1911 1
 1658  1915  1914 1
 1659  1917  1916 1
 1660  1918  1917 1
 1661  1919  1917 1
 1662  1920  1917 1
 1663  1921  1920 1
 1664  1923  1922 1
 1665  1924  1923 1
 1666  1925  1923 1
 1667  1926  1923 1
 1668  1927  1926 1
 1669  1929  1928 1
 1670  1930  1929 1
 1671  1931  1929 1
 1672  1932  1929 1
 1673  1933  1932 1
 1674  1935  1934 1
 1675  1936  1935 1
 1676  1937  1935 1
 1677  1938  1935 1
 1678  1939  1938 1
 1679  1941  1940 1
 1680  1942  1941 1
 1681  1943  1941 1
 1682  1944  1941 1
 1683  1945  1944 1
 1684  1947  1946 1
 1685  1948  1947 1
 1686  1949  1947 1
 1687  1950  1947 1
 1688  1951  1950 1
 1689  1953  1952 1
 1690  1954  1953 1
 1691  1955  1953 1
 1692  1956  1953 1
 1693  1957  1956 1
 1694  1959  1958 1
 1695  1960  1959 1
 1696  1961  1959 1
 1697  1962  1959 1
 1698  1963  1962 1
 1699  1965  1964 1
 1700  1966  1965 1
 1701  1967  1965 1
 1702  1968  1965 1
 1703  1969  1968 1
 1704  1971  1970 1
 1705  1972  1971 1
 1706  1973  1971 1
 1707  1974  1971 1
 1708  1975  1974 1
 1709  1977  1976 1
 1710  1978  1977 1
 1711  1979  1977 1
 1712  1980  1977 1
 1713  1981  1980 1
 1714  1983  1982 1
 1715  1984  1983 1
 1716  1985  1983 1
 1717  1986  1983 1
 1718  1987  1986 1
 1719  1989  1988 1
 1720  1990  1989 1
 1721  1991  1989 1
 1722  1992  1989 1
 1723  1993  1992 1
 1724  1995  1994 1
 1725  1996  1995 1
 1726  1997  1995 1
 1727  1998  1995 1
 1728  1999  1998 1
 1729  2001  2000 1
 1730  2002  2001 1
 1731  2003  2001 1
 1732  2004  2001 1
 1733  2005  2004 1
 1734  2007  2006 1
 1735  2008  2007 1
 1736  2009  2007 1
 1737  2010  2007 1
 1738  2011  2010 1
 1739  2013  2012 1
 1740  2014  2013 1
 1741  2015  2013 1
 1742  2016  2013 1
 1743  2017  2016 1
 1744  2019  2018 1
 1745  2020  2019 1
 1746  2021  2019 1
 1747  2022  2019 1
 1748  2023  2022 1
 1749  2025  2024 1
 1750  2026  2025 1
 1751  2027  2025 1
 1752  2028  2025 1
 1753  2029  2028 1
 1754  2031  2030 1
 1755  2032  2031 1
 1756  2033  2031 1
 1757  2034  2031 1
 1758  2035  2034 1
 1759  2037  2036 1
 1760  2038  2037 1
 1761  2039  2037 1
 1762  2040  2037 1
 1763  2041  2040 1
 1764  2043  2042 1
 1765  2044  2043 1
 1766  2045  2043 1
 1767  2046  2043 1
 1768  2047  2046 1
 1769  2049  2048 1
 1770  2050  2049 1
 1771  2051  2049 1
 1772  2052  2049 1
 1773  2053  2052 1
 1774  2055  2054 1
 1775  2056  2055 1
 1776  2057  2055 1
 1777  2058  2055 1
 1778  2059  2058 1
 1779  2061  2060 1
 1780  2062  2061 1
 1781  2063  2061 1
 1782  2064  2061 1
 1783  2065  2064 1
 1784  2067  2066 1
 1785  2068  2067 1
 1786  2069  2067 1
 1787  2070  2067 1
 1788  2071  2070 1
 1789  2073  2072 1
 1790  2074  2073 1
 1791  2075  2073 1
 1792  2076  2073 1
 1793  2077  2076 1
 1794  2079  2078 1
 1795  2080  2079 1
 1796  2081  2079 1
 1797  2082  2079 1
 1798  2083  2082 1
 1799  2085  2084 1
 1800  2086  2085 1
 1801  2087  2085 1
 1802  2088  2085 1
 1803  2089  2088 1
 1804  2091  2090 1
 1805  2092  2091 1
 1806  2093  2091 1
 1807  2094  2091 1
 1808  2095  2094 1
 1809  2097  2096 1
 1810  2098  2097 1
 1811  2099  2097 1
 1812  2100  2097 1
 1813  2101  2100 1
 1814  2103  2102 1
 1815  2104  2103 1
 1816  2105  2103 1
 1817  2106  2103 1
 1818  2107  2106 1
 1819  2109  2108 1
 1820  2110  2109 1
 1821  2111  2109 1
 1822  2112  2109 1
 1823  2113  2112 1
 1824  2115  2114 1
 1825  2116  2115 1
 1826  2117  2115 1
 1827  2118  2115 1
 1828  2119  2118 1
 1829  2121  2120 1
 1830  2122  2121 1
 1831  2123  2121 1
 1832  2124  2121 1
 1833  2125  2124 1
 1834  2127  2126 1
 1835  2128  2127 1
 1836  2129  2127 1
 1837  2130  2127 1
 1838  2131  2130 1
 1839  2133  2132 1
 1840  2134  2133 1
 1841  2135  2133 1
 1842  2136  2133 1
 1843  2137  2136 1
 1844  2139  2138 1
 1845  2140  2139 1
 1846  2141  2139 1
 1847  2142  2139 1
 1848  2143  2142 1
 1849  2145  2144 1
 1850  2146  2145 1
 1851  2147  2145 1
 1852  2148  2145 1
 1853  2149  2148 1
 1854  2151  2150 1
 1855  2152  2151 1
 1856  2153  2151 1
 1857  2154  2151 1
 1858  2155  2154 1
 1859  2157  2156 1
 1860  2158  2157 1
 1861  2159  2157 1
 1862  2160  2157 1
 1863  2161  2160 1
 1864  2163  2162 1
 1865  2164  2163 1
 1866  2165  2163 1
 1867  2166  2163 1
 1868  2167  2166 1
 1869  2169  2168 1
 1870  2170  2169 1
 1871  2171  2169 1
 1872  2172  2169 1
 1873  2173  2172 1
 1874  2175  2174 1
 1875  2176  2175 1
 1876  2177  2175 1
 1877  2178  2175 1
 1878  2179  2178 1
 1879  2181  2180 1
 1880  2182  2181 1
 1881  2183  2181 1
 1882  2184  2181 1
 1883  2185  2184 1
 1884  2187  2186 1
 1885  2188  2187 1
 1886  2189  2187 1
 1887  2190  2187 1
 1888  2191  2190 1
 1889  2193  2192 1
 1890  2194  2193 1
 1891  2195  2193 1
 1892  2196  2193 1
 1893  2197  2196 1
 1894  2199  2198 1
 1895  2200  2199 1
 1896  2201  2199 1
 1897  2202  2199 1
 1898  2203  2202 1
 1899  2205  2204 1
 1900  2206  2205 1
 1901  2207  2205 1
 1902  2208  2205 1
 1903  2209  2208 1
 1904  2211  2210 1
 1905  2212  2211 1
 1906  2213  2211 1
 1907  2214  2211 1
 1908  2215  2214 1
 1909  2217  2216 1
 1910  2218  2217 1
 1911  2219  2217 1
 1912  2220  2217 1
 1913  2221  2220 1
 1914  2223  2222 1
 1915  2224  2223 1
 1916  2225  2223 1
 1917  2226  2223 1
 1918  2227  2226 1
 1919  2229  2228 1
 1920  2230  2229 1
 1921  2231  2229 1
 1922  2232  2229 1
 1923  2233  2232 1
 1924  2235  2234 1
 1925  2236  2235 1
 1926  2237  2235 1
 1927  2238  2235 1
 1928  2239  2238 1
 1929  2241  2240 1
 1930  2242  2241 1
 1931  2243  2241 1
 1932  2244  2241 1
 1933  2245  2244 1
 1934  2247  2246 1
 1935  2248  2247 1
 1936  2249  2247 1
 1937  2250  2247 1
 1938  2251  2250 1
 1939  2253  2252 1
 1940  2254  2253 1
 1941  2255  2253 1
 1942  2256  2253 1
 1943  2257  2256 1
 1944  2259  2258 1
 1945  2260  2259 1
 1946  2261  2259 1
 1947  2262  2259 1
 1948  2263  2262 1
 1949  2265  2264 1
 1950  2266  2265 1
 1951  2267  2265 1
 1952  2268  2265 1
 1953  2269  2268 1
 1954  2271  2270 1
 1955  2272  2271 1
 1956  2273  2271 1
 1957  2274  2271 1
 1958  2275  2274 1
 1959  2277  2276 1
 1960  2278  2277 1
 1961  2279  2277 1
 1962  2280  2277 1
 1963  2281  2280 1
 1964  2283  2282 1
 1965  2284  2283 1
 1966  2285  2283 1
 1967  2286  2283 1
 1968  2287  2286 1
 1969  2289  2288 1
 1970  2290  2289 1
 1971  2291  2289 1
 1972  2292  2289 1
 1973  2293  2292 1
 1974  2295  2294 1
 1975  2296  2295 1
 1976  2297  2295 1
 1977  2298  2295 1
 1978  2299  2298 1
 1979  2301  2300 1
 1980  2302  2301 1
 1981  2303  2301 1
 1982  2304  2301 1
 1983  2305  2304 1
 1984  2307  2306 1
 1985  2308  2307 1
 1986  2309  2307 1
 1987  2310  2307 1
 1988  2311  2310 1
 1989  2313  2312 1
 1990  2314  2313 1
 1991  2315  2313 1
 1992  2316  2313 1
 1993  2317  2316 1
 1994  2319  2318 1
 1995  2320  2319 1
 1996  2321  2319 1
 1997  2322  2319 1
 1998  2323  2322 1
 1999  2325  2324 1
 2000  2326  2325 1
 2001  2327  2325 1
 2002  2328  2325 1
 2003  2329  2328 1
 2004  2331  2330 1
 2005  2332  2331 1
 2006  2333  2331 1
 2007  2334  2331 1
 2008  2335  2334 1
 2009  2337  2336 1
 2010  2338  2337 1
 2011  2339  2337 1
 2012  2340  2337 1
 2013  2341  2340 1
 2014  2343  2342 1
 2015  2344  2343 1
 2016  2345  2343 1
 2017  2346  2343 1
 2018  2347  2346 1
 2019  2349  2348 1
 2020  2350  2349 1
 2021  2351  2349 1
 2022  2352  2349 1
 2023  2353  2352 1
 2024  2355  2354 1
 2025  2356  2355 1
 2026  2357  2355 1
 2027  2358  2355 1
 2028  2359  2358 1
 2029  2361  2360 1
 2030  2362  2361 1
 2031  2363  2361 1
 2032  2364  2361 1
 2033  2365  2364 1
 2034  2367  2366 1
 2035  2368  2367 1
 2036  2369  2367 1
 2037  2370  2367 1
 2038  2371  2370 1
 2039  2373  2372 1
 2040  2374  2373 1
 2041  2375  2373 1
 2042  2376  2373 1
 2043  2377  2376 1
 2044  2379  2378 1
 2045  2380  2379 1
 2046  2381  2379 1
 2047  2382  2379 1
 2048  2383  2382 1
 2049  2385  2384 1
 2050  2386  2385 1
 2051  2387  2385 1
 2052  2388  2385 1
 2053  2389  2388 1
 2054  2391  2390 1
 2055  2392  2391 1
 2056  2393  2391 1
 2057  2394  2391 1
 2058  2395  2394 1
 2059  2397  2396 1
 2060  2398  2397 1
 2061  2399  2397 1
 2062  2400  2397 1
 2063  2401  2400 1
 2064  2403  2402 1
 2065  2404  2403 1
 2066  2405  2403 1
 2067  2406  2403 1
 2068  2407  2406 1
 2069  2409  2408 1
 2070  2410  2409 1
 2071  2411  2409 1
 2072  2412  2409 1
 2073  2413  2412 1
 2074  2415  2414 1
 2075  2416  2415 1
 2076  2417  2415 1
 2077  2418  2415 1
 2078  2419  2418 1
 2079  2421  2420 1
 2080  2422  2421 1
 2081  2423  2421 1
 2082  2424  2421 1
 2083  2425  2424 1
 2084  2427  2426 1
 2085  2428  2427 1
 2086  2429  2427 1
 2087  2430  2427 1
 2088  2431  2430 1
 2089  2433  2432 1
 2090  2434  2433 1
 2091  2435  2433 1
 2092  2436  2433 1
 2093  2437  2436 1
 2094  2439  2438 1
 2095  2440  2439 1
 2096  2441  2439 1
 2097  2442  2439 1
 2098  2443  2442 1
 2099  2445  2444 1
 2100  2446  2445 1
 2101  2447  2445 1
 2102  2448  2445 1
 2103  2449  2448 1
 2104  2451  2450 1
 2105  2452  2451 1
 2106  2453  2451 1
 2107  2454  2451 1
 2108  2455  2454 1
 2109  2457  2456 1
 2110  2458  2457 1
 2111  2459  2457 1
 2112  2460  2457 1
 2113  2461  2460 1
 2114  2463  2462 1
 2115  2464  2463 1
 2116  2465  2463 1
 2117  2466  2463 1
 2118  2467  2466 1
 2119  2469  2468 1
 2120  2470  2469 1
 2121  2471  2469 1
 2122  2472  2469 1
 2123  2473  2472 1
 2124  2475  2474 1
 2125  2476  2475 1
 2126  2477  2475 1
 2127  2478  2475 1
 2128  2479  2478 1
 2129  2481  2480 1
 2130  2482  2481 1
 2131  2483  2481 1
 2132  2484  2481 1
 2133  2485  2484 1
 2134  2487  2486 1
 2135  2488  2487 1
 2136  2489  2487 1
 2137  2490  2487 1
 2138  2491  2490 1
 2139  2493  2492 1
 2140  2494  2493 1
 2141  2495  2493 1
 2142  2496  2493 1
 2143  2497  2496 1
 2144  2499  2498 1
 2145  2500  2499 1
 2146  2501  2499 1
 2147  2502  2499 1
 2148  2503  2502 1
 2149  2505  2504 1
 2150  2506  2505 1
 2151  2507  2505 1
 2152  2508  2505 1
 2153  2509  2508 1
 2154  2511  2510 1
 2155  2512  2511 1
 2156  2513  2511 1
 2157  2514  2511 1
 2158  2515  2514 1
 2159  2517  2516 1
 2160  2518  2517 1
 2161  2519  2517 1
 2162  2520  2517 1
 2163  2521  2520 1
 2164  2523  2522 1
 2165  2524  2523 1
 2166  2525  2523 1
 2167  2526  2523 1
 2168  2527  2526 1
 2169  2529  2528 1
 2170  2530  2529 1
 2171  2531  2529 1
 2172  2532  2529 1
 2173  2533  2532 1
 2174  2535  2534 1
 2175  2536  2535 1
 2176  2537  2535 1
 2177  2538  2535 1
 2178  2539  2538 1
 2179  2541  2540 1
 2180  2542  2541 1
 2181  2543  2541 1
 2182  2544  2541 1
 2183  2545  2544 1
 2184  2547  2546 1
 2185  2548  2547 1
 2186  2549  2547 1
 2187  2550  2547 1
 2188  2551  2550 1
 2189  2553  2552 1
 2190  2554  2553 1
 2191  2555  2553 1
 2192  2556  2553 1
 2193  2557  2556 1
 2194  2559  2558 1
 2195  2560  2559 1
 2196  2561  2559 1
 2197  2562  2559 1
 2198  2563  2562 1
 2199  2565  2564 1
 2200  2566  2565 1
 2201  2567  2565 1
 2202  2568  2565 1
 2203  2569  2568 1
 2204  2571  2570 1
 2205  2572  2571 1
 2206  2573  2571 1
 2207  2574  2571 1
 2208  2575  2574 1
 2209  2577  2576 1
 2210  2578  2577 1
 2211  2579  2577 1
 2212  2580  2577 1
 2213  2581  2580 1
 2214  2583  2582 1
 2215  2584  2583 1
 2216  2585  2583 1
 2217  2586  2583 1
 2218  2587  2586 1
 2219  2589  2588 1
 2220  2590  2589 1
 2221  2591  2589 1
 2222  2592  2589 1
 2223  2593  2592 1
 2224  2595  2594 1
 2225  2596  2595 1
 2226  2597  2595 1
 2227  2598  2595 1
 2228  2599  2598 1
 2229  2601  2600 1
 2230  2602  2601 1
 2231  2603  2601 1
 2232  2604  2601 1
 2233  2605  2604 1
 2234  2607  2606 1
 2235  2608  2607 1
 2236  2609  2607 1
 2237  2610  2607 1
 2238  2611  2610 1
 2239  2613  2612 1
 2240  2614  2613 1
 2241  2615  2613 1
 2242  2616  2613 1
 2243  2617  2616 1
 2244  2619  2618 1
 2245  2620  2619 1
 2246  2621  2619 1
 2247  2622  2619 1
 2248  2623  2622 1
 2249  2625  2624 1
 2250  2626  2625 1
 2251  2627  2625 1
 2252  2628  2625 1
 2253  2629  2628 1
 2254  2631  2630 1
 2255  2632  2631 1
 2256  2633  2631 1
 2257  2634  2631 1
 2258  2635  2634 1
 2259  2637  2636 1
 2260  2638  2637 1
 2261  2639  2637 1
 2262  2640  2637 1
 2263  2641  2640 1
 2264  2643  2642 1
 2265  2644  2643 1
 2266  2645  2643 1
 2267  2646  2643 1
 2268  2647  2646 1
 2269  2649  2648 1
 2270  2650  2649 1
 2271  2651  2649 1
 2272  2652  2649 1
 2273  2653  2652 1
 2274  2655  2654 1
 2275  2656  2655 1
 2276  2657  2655 1
 2277  2658  2655 1
 2278  2659  2658 1
 2279  2661  2660 1
 2280  2662  2661 1
 2281  2663  2661 1
 2282  2664  2661 1
 2283  2665  2664 1
 2284  2667  2666 1
 2285  2668  2667 1
 2286  2669  2667 1
 2287  2670  2667 1
 2288  2671  2670 1
 2289  2673  2672 1
 2290  2674  2673 1
 2291  2675  2673 1
 2292  2676  2673 1
 2293  2677  2676 1
 2294  2679  2678 1
 2295  2680  2679 1
 2296  2681  2679 1
 2297  2682  2679 1
 2298  2683  2682 1
 2299  2685  2684 1
 2300  2686  2685 1
 2301  2687  2685 1
 2302  2688  2685 1
 2303  2689  2688 1
 2304  2691  2690 1
 2305  2692  2691 1
 2306  2693  2691 1
 2307  2694  2691 1
 2308  2695  2694 1
 2309  2697  2696 1
 2310  2698  2697 1
 2311  2699  2697 1
 2312  2700  2697 1
 2313  2701  2700 1
 2314  2703  2702 1
 2315  2704  2703 1
 2316  2705  2703 1
 2317  2706  2703 1
 2318  2707  2706 1
 2319  2709  2708 1
 2320  2710  2709 1
 2321  2711  2709 1
 2322  2712  2709 1
 2323  2713  2712 1
 2324  2715  2714 1
 2325  2716  2715 1
 2326  2717  2715 1
 2327  2718  2715 1
 2328  2719  2718 1
 2329  2721  2720 1
 2330  2722  2721 1
 2331  2723  2721 1
 2332  2724  2721 1
 2333  2725  2724 1
 2334  2727  2726 1
 2335  2728  2727 1
 2336  2729  2727 1
 2337  2730  2727 1
 2338  2731  2730 1
 2339  2733  2732 1
 2340  2734  2733 1
 2341  2735  2733 1
 2342  2736  2733 1
 2343  2737  2736 1
 2344  2739  2738 1
 2345  2740  2739 1
 2346  2741  2739 1
 2347  2742  2739 1
 2348  2743  2742 1
 2349  2745  2744 1
 2350  2746  2745 1
 2351  2747  2745 1
 2352  2748  2745 1
 2353  2749  2748 1
 2354  2751  2750 1
 2355  2752  2751 1
 2356  2753  2751 1
 2357  2754  2751 1
 2358  2755  2754 1
 2359  2757  2756 1
 2360  2758  2757 1
 2361  2759  2757 1
 2362  2760  2757 1
 2363  2761  2760 1
 2364  2763  2762 1
 2365  2764  2763 1
 2366  2765  2763 1
 2367  2766  2763 1
 2368  2767  2766 1
 2369  2769  2768 1
 2370  2770  2769 1
 2371  2771  2769 1
 2372  2772  2769 1
 2373  2773  2772 1
 2374  2775  2774 1
 2375  2776  2775 1
 2376  2777  2775 1
 2377  2778  2775 1
 2378  2779  2778 1
 2379  2781  2780 1
 2380  2782  2781 1
 2381  2783  2781 1
 2382  2784  2781 1
 2383  2785  2784 1
 2384  2787  2786 1
 2385  2788  2787 1
 2386  2789  2787 1
 2387  2790  2787 1
 2388  2791  2790 1
 2389  2793  2792 1
 2390  2794  2793 1
 2391  2795  2793 1
 2392  2796  2793 1
 2393  2797  2796 1
 2394  2799  2798 1
 2395  2800  2799 1
 2396  2801  2799 1
 2397  2802  2799 1
 2398  2803  2802 1
 2399  2805  2804 1
 2400  2806  2805 1
 2401  2807  2805 1
 2402  2808  2805 1
 2403  2809  2808 1
 2404  2811  2810 1
 2405  2812  2811 1
 2406  2813  2811 1
 2407  2814  2811 1
 2408  2815  2814 1
 2409  2817  2816 1
 2410  2818  2817 1
 2411  2819  2817 1
 2412  2820  2817 1
 2413  2821  2820 1
 2414  2823  2822 1
 2415  2824  2823 1
 2416  2825  2823 1
 2417  2826  2823 1
 2418  2827  2826 1
 2419  2829  2828 1
 2420  2830  2829 1
 2421  2831  2829 1
 2422  2832  2829 1
 2423  2833  2832 1
 2424  2835  2834 1
 2425  2836  2835 1
 2426  2837  2835 1
 2427  2838  2835 1
 2428  2839  2838 1
 2429  2841  2840 1
 2430  2842  2841 1
 2431  2843  2841 1
 2432  2844  2841 1
 2433  2845  2844 1
 2434  2847  2846 1
 2435  2848  2847 1
 2436  2849  2847 1
 2437  2850  2847 1
 2438  2851  2850 1
 2439  2853  2852 1
 2440  2854  2853 1
 2441  2855  2853 1
 2442  2856  2853 1
 2443  2857  2856 1
 2444  2859  2858 1
 2445  2860  2859 1
 2446  2861  2859 1
 2447  2862  2859 1
 2448  2863  2862 1
 2449  2865  2864 1
 2450  2866  2865 1
 2451  2867  2865 1
 2452  2868  2865 1
 2453  2869  2868 1
 2454  2871  2870 1
 2455  2872  2871 1
 2456  2873  2871 1
 2457  2874  2871 1
 2458  2875  2874 1
 2459  2877  2876 1
 2460  2878  2877 1
 2461  2879  2877 1
 2462  2880  2877 1
 2463  2881  2880 1
 2464  2883  2882 1
 2465  2884  2883 1
 2466  2885  2883 1
 2467  2886  2883 1
 2468  2887  2886 1
 2469  2889  2888 1
 2470  2890  2889 1
 2471  2891  2889 1
 2472  2892  2889 1
 2473  2893  2892 1
 2474  2895  2894 1
 2475  2896  2895 1
 2476  2897  2895 1
 2477  2898  2895 1
 2478  2899  2898 1
 2479  2901  2900 1
 2480  2902  2901 1
 2481  2903  2901 1
 2482  2904  2901 1
 2483  2905  2904 1
 2484  2907  2906 1
 2485  2908  2907 1
 2486  2909  2907 1
 2487  2910  2907 1
 2488  2911  2910 1
 2489  2913  2912 1
 2490  2914  2913 1
 2491  2915  2913 1
 2492  2916  2913 1
 2493  2917  2916 1
 2494  2919  2918 1
 2495  2920  2919 1
 2496  2921  2919 1
 2497  2922  2919 1
 2498  2923  2922 1
 2499  2925  2924 1
 2500  2926  2925 1
 2501  2927  2925 1
 2502  2928  2925 1
 2503  2929  2928 1
 2504  2931  2930 1
 2505  2932  2931 1
 2506  2933  2931 1
 2507  2934  2931 1
 2508  2935  2934 1
 2509  2937  2936 1
 2510  2938  2937 1
 2511  2939  2937 1
 2512  2940  2937 1
 2513  2941  2940 1
 2514  2943  2942 1
 2515  2944  2943 1
 2516  2945  2943 1
 2517  2946  2943 1
 2518  2947  2946 1
 2519  2949  2948 1
 2520  2950  2949 1
 2521  2951  2949 1
 2522  2952  2949 1
 2523  2953  2952 1
 2524  2955  2954 1
 2525  2956  2955 1
 2526  2957  2955 1
 2527  2958  2955 1
 2528  2959  2958 1
 2529  2961  2960 1
 2530  2962  2961 1
 2531  2963  2961 1
 2532  2964  2961 1
 2533  2965  2964 1
 2534  2967  2966 1
 2535  2968  2967 1
 2536  2969  2967 1
 2537  2970  2967 1
 2538  2971  2970 1
 2539  2973  2972 1
 2540  2974  2973 1
 2541  2975  2973 1
 2542  2976  2973 1
 2543  2977  2976 1
 2544  2979  2978 1
 2545  2980  2979 1
 2546  2981  2979 1
 2547  2982  2979 1
 2548  2983  2982 1
 2549  2985  2984 1
 2550  2986  2985 1
 2551  2987  2985 1
 2552  2988  2985 1
 2553  2989  2988 1
 2554  2991  2990 1
 2555  2992  2991 1
 2556  2993  2991 1
 2557  2994  2991 1
 2558  2995  2994 1
 2559  2997  2996 1
 2560  2998  2997 1
 2561  2999  2997 1
 2562  3000  2997 1
 2563  3001  3000 1
 2564  3003  3002 1
 2565  3004  3003 1
 2566  3005  3003 1
 2567  3006  3003 1
 2568  3007  3006 1
 2569  3009  3008 1
 2570  3010  3009 1
 2571  3011  3009 1
 2572  3012  3009 1
 2573  3013  3012 1
 2574  3015  3014 1
 2575  3016  3015 1
 2576  3017  3015 1
 2577  3018  3015 1
 2578  3019  3018 1
 2579  3021  3020 1
 2580  3022  3021 1
 2581  3023  3021 1
 2582  3024  3021 1
 2583  3025  3024 1
 2584  3027  3026 1
 2585  3028  3027 1
 2586  3029  3027 1
 2587  3030  3027 1
 2588  3031  3030 1
 2589  3033  3032 1
 2590  3034  3033 1
 2591  3035  3033 1
 2592  3036  3033 1
 2593  3037  3036 1
 2594  3039  3038 1
 2595  3040  3039 1
 2596  3041  3039 1
 2597  3042  3039 1
 2598  3043  3042 1
 2599  3045  3044 1
 2600  3046  3045 1
 2601  3047  3045 1
 2602  3048  3045 1
 2603  3049  3048 1
 2604  3051  3050 1
 2605  3052  3051 1
 2606  3053  3051 1
 2607  3054  3051 1
 2608  3055  3054 1
 2609  3057  3056 1
 2610  3058  3057 1
 2611  3059  3057 1
 2612  3060  3057 1
 2613  3061  3060 1
 2614  3063  3062 1
 2615  3064  3063 1
 2616  3065  3063 1
 2617  3066  3063 1
 2618  3067  3066 1
 2619  3069  3068 1
 2620  3070  3069 1
 2621  3071  3069 1
 2622  3072  3069 1
 2623  3073  3072 1
 2624  3075  3074 1
 2625  3076  3075 1
 2626  3077  3075 1
 2627  3078  3075 1
 2628  3079  3078 1
 2629  3081  3080 1
 2630  3082  3081 1
 2631  3083  3081 1
 2632  3084  3081 1
 2633  3085  3084 1
 2634  3087  3086 1
 2635  3088  3087 1
 2636  3089  3087 1
 2637  3090  3087 1
 2638  3091  3090 1
 2639  3093  3092 1
 2640  3094  3093 1
 2641  3095  3093 1
 2642  3096  3093 1
 2643  3097  3096 1
 2644  3099  3098 1
 2645  3100  3099 1
 2646  3101  3099 1
 2647  3102  3099 1
 2648  3103  3102 1
 2649  3105  3104 1
 2650  3106  3105 1
 2651  3107  3105 1
 2652  3108  3105 1
 2653  3109  3108 1
 2654  3111  3110 1
 2655  3112  3111 1
 2656  3113  3111 1
 2657  3114  3111 1
 2658  3115  3114 1
 2659  3117  3116 1
 2660  3118  3117 1
 2661  3119  3117 1
 2662  3120  3117 1
 2663  3121  3120 1
 2664  3123  3122 1
 2665  3124  3123 1
 2666  3125  3123 1
 2667  3126  3123 1
 2668  3127  3126 1
 2669  3129  3128 1
 2670  3130  3129 1
 2671  3131  3129 1
 2672  3132  3129 1
 2673  3133  3132 1
 2674  3135  3134 1
 2675  3136  3135 1
 2676  3137  3135 1
 2677  3138  3135 1
 2678  3139  3138 1
 2679  3141  3140 1
 2680  3142  3141 1
 2681  3143  3141 1
 2682  3144  3141 1
 2683  3145  3144 1
 2684  3147  3146 1
 2685  3148  3147 1
 2686  3149  3147 1
 2687  3150  3147 1
 2688  3151  3150 1
 2689  3153  3152 1
 2690  3154  3153 1
 2691  3155  3153 1
 2692  3156  3153 1
 2693  3157  3156 1
 2694  3159  3158 1
 2695  3160  3159 1
 2696  3161  3159 1
 2697  3162  3159 1
 2698  3163  3162 1
 2699  3165  3164 1
 2700  3166  3165 1
 2701  3167  3165 1
 2702  3168  3165 1
 2703  3169  3168 1
 2704  3171  3170 1
 2705  3172  3171 1
 2706  3173  3171 1
 2707  3174  3171 1
 2708  3175  3174 1
 2709  3177  3176 1
 2710  3178  3177 1
 2711  3179  3177 1
 2712  3180  3177 1
 2713  3181  3180 1
 2714  3183  3182 1
 2715  3184  3183 1
 2716  3185  3183 1
 2717  3186  3183 1
 2718  3187  3186 1
 2719  3189  3188 1
 2720  3190  3189 1
 2721  3191  3189 1
 2722  3192  3189 1
 2723  3193  3192 1
 2724  3195  3194 1
 2725  3196  3195 1
 2726  3197  3195 1
 2727  3198  3195 1
 2728  3199  3198 1
 2729  3201  3200 1
 2730  3202  3201 1
 2731  3203  3201 1
 2732  3204  3201 1
 2733  3205  3204 1
 2734  3207  3206 1
 2735  3208  3207 1
 2736  3209  3207 1
 2737  3210  3207 1
 2738  3211  3210 1
 2739  3213  3212 1
 2740  3214  3213 1
 2741  3215  3213 1
 2742  3216  3213 1
 2743  3217  3216 1
 2744  3219  3218 1
 2745  3220  3219 1
 2746  3221  3219 1
 2747  3222  3219 1
 2748  3223  3222 1
 2749  3225  3224 1
 2750  3226  3225 1
 2751  3227  3225 1
 2752  3228  3225 1
 2753  3229  3228 1
 2754  3231  3230 1
 2755  3232  3231 1
 2756  3233  3231 1
 2757  3234  3231 1
 2758  3235  3234 1
 2759  3237  3236 1
 2760  3238  3237 1
 2761  3239  3237 1
 2762  3240  3237 1
 2763  3241  3240 1
 2764  3243  3242 1
 2765  3244  3243 1
 2766  3245  3243 1
 2767  3246  3243 1
 2768  3247  3246 1
 2769  3249  3248 1
 2770  3250  3249 1
 2771  3251  3249 1
 2772  3252  3249 1
 2773  3253  3252 1
 2774  3255  3254 1
 2775  3256  3255 1
 2776  3257  3255 1
 2777  3258  3255 1
 2778  3259  3258 1
 2779  3261  3260 1
 2780  3262  3261 1
 2781  3263  3261 1
 2782  3264  3261 1
 2783  3265  3264 1
 2784  3267  3266 1
 2785  3268  3267 1
 2786  3269  3267 1
 2787  3270  3267 1
 2788  3271  3270 1
 2789  3273  3272 1
 2790  3274  3273 1
 2791  3275  3273 1
 2792  3276  3273 1
 2793  3277  3276 1
 2794  3279  3278 1
 2795  3280  3279 1
 2796  3281  3279 1
 2797  3282  3279 1
 2798  3283  3282 1
 2799  3285  3284 1
 2800  3286  3285 1
 2801  3287  3285 1
 2802  3288  3285 1
 2803  3289  3288 1
 2804  3291  3290 1
 2805  3292  3291 1
 2806  3293  3291 1
 2807  3294  3291 1
 2808  3295  3294 1
 2809  3297  3296 1
 2810  3298  3297 1
 2811  3299  3297 1
 2812  3300  3297 1
 2813  3301  3300 1
 2814  3303  3302 1
 2815  3304  3303 1
 2816  3305  3303 1
 2817  3306  3303 1
 2818  3307  3306 1
 2819  3309  3308 1
 2820  3310  3309 1
 2821  3311  3309 1
 2822  3312  3309 1
 2823  3313  3312 1
 2824  3315  3314 1
 2825  3316  3315 1
 2826  3317  3315 1
 2827  3318  3315 1
 2828  3319  3318 1
 2829  3321  3320 1
 2830  3322  3321 1
 2831  3323  3321 1
 2832  3324  3321 1
 2833  3325  3324 1
 2834  3327  3326 1
 2835  3328  3327 1
 2836  3329  3327 1
 2837  3330  3327 1
 2838  3331  3330 1
 2839  3333  3332 1
 2840  3334  3333 1
 2841  3335  3333 1
 2842  3336  3333 1
 2843  3337  3336 1
 2844  3339  3338 1
 2845  3340  3339 1
 2846  3341  3339 1
 2847  3342  3339 1
 2848  3343  3342 1
 2849  3345  3344 1
 2850  3346  3345 1
 2851  3347  3345 1
 2852  3348  3345 1
 2853  3349  3348 1
 2854  3351  3350 1
 2855  3352  3351 1
 2856  3353  3351 1
 2857  3354  3351 1
 2858  3355  3354 1
 2859  3357  3356 1
 2860  3358  3357 1
 2861  3359  3357 1
 2862  3360  3357 1
 2863  3361  3360 1
 2864  3363  3362 1
 2865  3364  3363 1
 2866  3365  3363 1
 2867  3366  3363 1
 2868  3367  3366 1
 2869  3369  3368 1
 2870  3370  3369 1
 2871  3371  3369 1
 2872  3372  3369 1
 2873  3373  3372 1
 2874  3375  3374 1
 2875  3376  3375 1
 2876  3377  3375 1
 2877  3378  3375 1
 2878  3379  3378 1
 2879  3381  3380 1
 2880  3382  3381 1
 2881  3383  3381 1
 2882  3384  3381 1
 2883  3385  3384 1
 2884  3387  3386 1
 2885  3388  3387 1
 2886  3389  3387 1
 2887  3390  3387 1
 2888  3391  3390 1
 2889  3393  3392 1
 2890  3394  3393 1
 2891  3395  3393 1
 2892  3396  3393 1
 2893  3397  3396 1
 2894  3399  3398 1
 2895  3400  3399 1
 2896  3401  3399 1
 2897  3402  3399 1
 2898  3403  3402 1
 2899  3405  3404 1
 2900  3406  3405 1
 2901  3407  3405 1
 2902  3408  3405 1
 2903  3409  3408 1
 2904  3411  3410 1
 2905  3412  3411 1
 2906  3413  3411 1
 2907  3414  3411 1
 2908  3415  3414 1
 2909  3417  3416 1
 2910  3418  3417 1
 2911  3419  3417 1
 2912  3420  3417 1
 2913  3421  3420 1
 2914  3423  3422 1
 2915  3424  3423 1
 2916  3425  3423 1
 2917  3426  3423 1
 2918  3427  3426 1
 2919  3429  3428 1
 2920  3430  3429 1
 2921  3431  3429 1
 2922  3432  3429 1
 2923  3433  3432 1
 2924  3435  3434 1
 2925  3436  3435 1
 2926  3437  3435 1
 2927  3438  3435 1
 2928  3439  3438 1
 2929  3441  3440 1
 2930  3442  3441 1
 2931  3443  3441 1
 2932  3444  3441 1
 2933  3445  3444 1
 2934  3447  3446 1
 2935  3448  3447 1
 2936  3449  3447 1
 2937  3450  3447 1
 2938  3451  3450 1
 2939  3453  3452 1
 2940  3454  3453 1
 2941  3455  3453 1
 2942  3456  3453 1
 2943  3457  3456 1
 2944  3459  3458 1
 2945  3460  3459 1
 2946  3461  3459 1
 2947  3462  3459 1
 2948  3463  3462 1
 2949  3465  3464 1
 2950  3466  3465 1
 2951  3467  3465 1
 2952  3468  3465 1
 2953  3469  3468 1
 2954  3471  3470 1
 2955  3472  3471 1
 2956  3473  3471 1
 2957  3474  3471 1
 2958  3475  3474 1
 2959  3477  3476 1
 2960  3478  3477 1
 2961  3479  3477 1
 2962  3480  3477 1
 2963  3481  3480 1
 2964  3483  3482 1
 2965  3484  3483 1
 2966  3485  3483 1
 2967  3486  3483 1
 2968  3487  3486 1
 2969  3489  3488 1
 2970  3490  3489 1
 2971  3491  3489 1
 2972  3492  3489 1
 2973  3493  3492 1
 2974  3495  3494 1
 2975  3496  3495 1
 2976  3497  3495 1
 2977  3498  3495 1
 2978  3499  3498 1
 2979  3501  3500 1
 2980  3502  3501 1
 2981  3503  3501 1
 2982  3504  3501 1
 2983  3505  3504 1
 2984  3507  3506 1
 2985  3508  3507 1
 2986  3509  3507 1
 2987  3510  3507 1
 2988  3511  3510 1
 2989  3513  3512 1
 2990  3514  3513 1
 2991  3515  3513 1
 2992  3516  3513 1
 2993  3517  3516 1
 2994  3519  3518 1
 2995  3520  3519 1
 2996  3521  3519 1
 2997  3522  3519 1
 2998  3523  3522 1
 2999  3525  3524 1
 3000  3526  3525 1
 3001  3527  3525 1
 3002  3528  3525 1
 3003  3529  3528 1
 3004  3531  3530 1
 3005  3532  3531 1
 3006  3533  3531 1
 3007  3534  3531 1
 3008  3535  3534 1
 3009  3537  3536 1
 3010  3538  3537 1
 3011  3539  3537 1
 3012  3540  3537 1
 3013  3541  3540 1
 3014  3543  3542 1
 3015  3544  3543 1
 3016  3545  3543 1
 3017  3546  3543 1
 3018  3547  3546 1
 3019  3549  3548 1
 3020  3550  3549 1
 3021  3551  3549 1
 3022  3552  3549 1
 3023  3553  3552 1
 3024  3555  3554 1
 3025  3556  3555 1
 3026  3557  3555 1
 3027  3558  3555 1
 3028  3559  3558 1
 3029  3561  3560 1
 3030  3562  3561 1
 3031  3563  3561 1
 3032  3564  3561 1
 3033  3565  3564 1
 3034  3567  3566 1
 3035  3568  3567 1
 3036  3569  3567 1
 3037  3570  3567 1
 3038  3571  3570 1
 3039  3573  3572 1
 3040  3574  3573 1
 3041  3575  3573 1
 3042  3576  3573 1
 3043  3577  3576 1
 3044  3579  3578 1
 3045  3580  3579 1
 3046  3581  3579 1
 3047  3582  3579 1
 3048  3583  3582 1
 3049  3585  3584 1
 3050  3586  3585 1
 3051  3587  3585 1
 3052  3588  3585 1
 3053  3589  3588 1
 3054  3591  3590 1
 3055  3592  3591 1
 3056  3593  3591 1
 3057  3594  3591 1
 3058  3595  3594 1
 3059  3597  3596 1
 3060  3598  3597 1
 3061  3599  3597 1
 3062  3600  3597 1
 3063  3601  3600 1
 3064  3603  3602 1
 3065  3604  3603 1
 3066  3605  3603 1
 3067  3606  3603 1
 3068  3607  3606 1
 3069  3609  3608 1
 3070  3610  3609 1
 3071  3611  3609 1
 3072  3612  3609 1
 3073  3613  3612 1
 3074  3615  3614 1
 3075  3616  3615 1
 3076  3617  3615 1
 3077  3618  3615 1
 3078  3619  3618 1
 3079  3621  3620 1
 3080  3622  3621 1
 3081  3623  3621 1
 3082  3624  3621 1
 3083  3625  3624 1
 3084  3627  3626 1
 3085  3628  3627 1
 3086  3629  3627 1
 3087  3630  3627 1
 3088  3631  3630 1
 3089  3633  3632 1
 3090  3634  3633 1
 3091  3635  3633 1
 3092  3636  3633 1
 3093  3637  3636 1
 3094  3639  3638 1
 3095  3640  3639 1
 3096  3641  3639 1
 3097  3642  3639 1
 3098  3643  3642 1
 3099  3645  3644 1
 3100  3646  3645 1
 3101  3647  3645 1
 3102  3648  3645 1
 3103  3649  3648 1
 3104  3651  3650 1
 3105  3652  3651 1
 3106  3653  3651 1
 3107  3654  3651 1
 3108  3655  3654 1
 3109  3657  3656 1
 3110  3658  3657 1
 3111  3659  3657 1
 3112  3660  3657 1
 3113  3661  3660 1
 3114  3663  3662 1
 3115  3664  3663 1
 3116  3665  3663 1
 3117  3666  3663 1
 3118  3667  3666 1
 3119  3669  3668 1
 3120  3670  3669 1
 3121  3671  3669 1
 3122  3672  3669 1
 3123  3673  3672 1
 3124  3675  3674 1
 3125  3676  3675 1
 3126  3677  3675 1
 3127  3678  3675 1
 3128  3679  3678 1
 3129  3681  3680 1
 3130  3682  3681 1
 3131  3683  3681 1
 3132  3684  3681 1
 3133  3685  3684 1
 3134  3687  3686 1
 3135  3688  3687 1
 3136  3689  3687 1
 3137  3690  3687 1
 3138  3691  3690 1
 3139  3693  3692 1
 3140  3694  3693 1
 3141  3695  3693 1
 3142  3696  3693 1
 3143  3697  3696 1
 3144  3699  3698 1
 3145  3700  3699 1
 3146  3701  3699 1
 3147  3702  3699 1
 3148  3703  3702 1
 3149  3705  3704 1
 3150  3706  3705 1
 3151  3707  3705 1
 3152  3708  3705 1
 3153  3709  3708 1
 3154  3711  3710 1
 3155  3712  3711 1
 3156  3713  3711 1
 3157  3714  3711 1
 3158  3715  3714 1
 3159  3717  3716 1
 3160  3718  3717 1
 3161  3719  3717 1
 3162  3720  3717 1
 3163  3721  3720 1
 3164  3723  3722 1
 3165  3724  3723 1
 3166  3725  3723 1
 3167  3726  3723 1
 3168  3727  3726 1
 3169  3729  3728 1
 3170  3730  3729 1
 3171  3731  3729 1
 3172  3732  3729 1
 3173  3733  3732 1
 3174  3735  3734 1
 3175  3736  3735 1
 3176  3737  3735 1
 3177  3738  3735 1
 3178  3739  3738 1
 3179  3741  3740 1
 3180  3742  3741 1
 3181  3743  3741 1
 3182  3744  3741 1
 3183  3745  3744 1
 3184  3747  3746 1
 3185  3748  3747 1
 3186  3749  3747 1
 3187  3750  3747 1
 3188  3751  3750 1
 3189  3753  3752 1
 3190  3754  3753 1
 3191  3755  3753 1
 3192  3756  3753 1
 3193  3757  3756 1
 3194  3759  3758 1
 3195  3760  3759 1
 3196  3761  3759 1
 3197  3762  3759 1
 3198  3763  3762 1
 3199  3765  3764 1
 3200  3766  3765 1
 3201  3767  3765 1
 3202  3768  3765 1
 3203  3769  3768 1
 3204  3771  3770 1
 3205  3772  3771 1
 3206  3773  3771 1
 3207  3774  3771 1
 3208  3775  3774 1
 3209  3777  3776 1
 3210  3778  3777 1
 3211  3779  3777 1
 3212  3780  3777 1
 3213  3781  3780 1
 3214  3783  3782 1
 3215  3784  3783 1
 3216  3785  3783 1
 3217  3786  3783 1
 3218  3787  3786 1
 3219  3789  3788 1
 3220  3790  3789 1
 3221  3791  3789 1
 3222  3792  3789 1
 3223  3793  3792 1
 3224  3795  3794 1
 3225  3796  3795 1
 3226  3797  3795 1
 3227  3798  3795 1
 3228  3799  3798 1
 3229  3801  3800 1
 3230  3802  3801 1
 3231  3803  3801 1
 3232  3804  3801 1
 3233  3805  3804 1
 3234  3807  3806 1
 3235  3808  3807 1
 3236  3809  3807 1
 3237  3810  3807 1
 3238  3811  3810 1
 3239  3813  3812 1
 3240  3814  3813 1
 3241  3815  3813 1
 3242  3816  3813 1
 3243  3817  3816 1
 3244  3819  3818 1
 3245  3820  3819 1
 3246  3821  3819 1
 3247  3822  3819 1
 3248  3823  3822 1
 3249  3825  3824 1
 3250  3826  3825 1
 3251  3827  3825 1
 3252  3828  3825 1
 3253  3829  3828 1
 3254  3831  3830 1
 3255  3832  3831 1
 3256  3833  3831 1
 3257  3834  3831 1
 3258  3835  3834 1
 3259  3837  3836 1
 3260  3838  3837 1
 3261  3839  3837 1
 3262  3840  3837 1
 3263  3841  3840 1
 3264  3843  3842 1
 3265  3844  3843 1
 3266  3845  3843 1
 3267  3846  3843 1
 3268  3847  3846 1
 3269  3849  3848 1
 3270  3850  3849 1
 3271  3851  3849 1
 3272  3852  3849 1
 3273  3853  3852 1
 3274  3855  3854 1
 3275  3856  3855 1
 3276  3857  3855 1
 3277  3858  3855 1
 3278  3859  3858 1
 3279  3861  3860 1
 3280  3862  3861 1
 3281  3863  3861 1
 3282  3864  3861 1
 3283  3865  3864 1
 3284  3867  3866 1
 3285  3868  3867 1
 3286  3869  3867 1
 3287  3870  3867 1
 3288  3871  3870 1
 3289  3873  3872 1
 3290  3874  3873 1
 3291  3875  3873 1
 3292  3876  3873 1
 3293  3877  3876 1
 3294  3879  3878 1
 3295  3880  3879 1
 3296  3881  3879 1
 3297  3882  3879 1
 3298  3883  3882 1
 3299  3885  3884 1
 3300  3886  3885 1
 3301  3887  3885 1
 3302  3888  3885 1
 3303  3889  3888 1
 3304  3891  3890 1
 3305  3892  3891 1
 3306  3893  3891 1
 3307  3894  3891 1
 3308  3895  3894 1
 3309  3897  3896 1
 3310  3898  3897 1
 3311  3899  3897 1
 3312  3900  3897 1
 3313  3901  3900 1
 3314  3903  3902 1
 3315  3904  3903 1
 3316  3905  3903 1
 3317  3906  3903 1
 3318  3907  3906 1
 3319  3909  3908 1
 3320  3910  3909 1
 3321  3911  3909 1
 3322  3912  3909 1
 3323  3913  3912 1
 3324  3915  3914 1
 3325  3916  3915 1
 3326  3917  3915 1
 3327  3918  3915 1
 3328  3919  3918 1
 3329  3921  3920 1
 3330  3922  3921 1
 3331  3923  3921 1
 3332  3924  3921 1
 3333  3925  3924 1
 3334  3927  3926 1
 3335  3928  3927 1
 3336  3929  3927 1
 3337  3930  3927 1
 3338  3931  3930 1
 3339  3933  3932 1
 3340  3934  3933 1
 3341  3935  3933 1
 3342  3936  3933 1
 3343  3937  3936 1
 3344  3939  3938 1
 3345  3940  3939 1
 3346  3941  3939 1
 3347  3942  3939 1
 3348  3943  3942 1
 3349  3945  3944 1
 3350  3946  3945 1
 3351  3947  3945 1
 3352  3948  3945 1
 3353  3949  3948 1
 3354  3951  3950 1
 3355  3952  3951 1
 3356  3953  3951 1
 3357  3954  3951 1
 3358  3955  3954 1
 3359  3957  3956 1
 3360  3958  3957 1
 3361  3959  3957 1
 3362  3960  3957 1
 3363  3961  3960 1
 3364  3963  3962 1
 3365  3964  3963 1
 3366  3965  3963 1
 3367  3966  3963 1
 3368  3967  3966 1
 3369  3969  3968 1
 3370  3970  3969 1
 3371  3971  3969 1
 3372  3972  3969 1
 3373  3973  3972 1
 3374  3975  3974 1
 3375  3976  3975 1
 3376  3977  3975 1
 3377  3978  3975 1
 3378  3979  3978 1
 3379  3981  3980 1
 3380  3982  3981 1
 3381  3983  3981 1
 3382  3984  3981 1
 3383  3985  3984 1
 3384  3987  3986 1
 3385  3988  3987 1
 3386  3989  3987 1
 3387  3990  3987 1
 3388  3991  3990 1
 3389  3993  3992 1
 3390  3994  3993 1
 3391  3995  3993 1
 3392  3996  3993 1
 3393  3997  3996 1
 3394  3999  3998 1
 3395  4000  3999 1
 3396  4001  3999 1
 3397  4002  3999 1
 3398  4003  4002 1
 3399  4005  4004 1
 3400  4006  4005 1
 3401  4007  4005 1
 3402  4008  4005 1
 3403  4009  4008 1
 3404  4011  4010 1
 3405  4012  4011 1
 3406  4013  4011 1
 3407  4014  4011 1
 3408  4015  4014 1
 3409  4017  4016 1
 3410  4018  4017 1
 3411  4019  4017 1
 3412  4020  4017 1
 3413  4021  4020 1
 3414  4023  4022 1
 3415  4024  4023 1
 3416  4025  4023 1
 3417  4026  4023 1
 3418  4027  4026 1
 3419  4029  4028 1
 3420  4030  4029 1
 3421  4031  4029 1
 3422  4032  4029 1
 3423  4033  4032 1
 3424  4035  4034 1
 3425  4036  4035 1
 3426  4037  4035 1
 3427  4038  4035 1
 3428  4039  4038 1
 3429  4041  4040 1
 3430  4042  4041 1
 3431  4043  4041 1
 3432  4044  4041 1
 3433  4045  4044 1
 3434  4047  4046 1
 3435  4048  4047 1
 3436  4049  4047 1
 3437  4050  4047 1
 3438  4051  4050 1
 3439  4053  4052 1
 3440  4054  4053 1
 3441  4055  4053 1
 3442  4056  4053 1
 3443  4057  4056 1
 3444  4059  4058 1
 3445  4060  4059 1
 3446  4061  4059 1
 3447  4062  4059 1
 3448  4063  4062 1
 3449  4065  4064 1
 3450  4066  4065 1
 3451  4067  4065 1
 3452  4068  4065 1
 3453  4069  4068 1
 3454  4071  4070 1
 3455  4072  4071 1
 3456  4073  4071 1
 3457  4074  4071 1
 3458  4075  4074 1
 3459  4077  4076 1
 3460  4078  4077 1
 3461  4079  4077 1
 3462  4080  4077 1
 3463  4081  4080 1
 3464  4083  4082 1
 3465  4084  4083 1
 3466  4085  4083 1
 3467  4086  4083 1
 3468  4087  4086 1
 3469  4089  4088 1
 3470  4090  4089 1
 3471  4091  4089 1
 3472  4092  4089 1
 3473  4093  4092 1
 3474  4095  4094 1
 3475  4096  4095 1
 3476  4097  4095 1
 3477  4098  4095 1
 3478  4099  4098 1
 3479  4101  4100 1
 3480  4102  4101 1
 3481  4103  4101 1
 3482  4104  4101 1
 3483  4105  4104 1
 3484  4107  4106 1
 3485  4108  4107 1
 3486  4109  4107 1
 3487  4110  4107 1
 3488  4111  4110 1
 3489  4113  4112 1
 3490  4114  4113 1
 3491  4115  4113 1
 3492  4116  4113 1
 3493  4117  4116 1
 3494  4119  4118 1
 3495  4120  4119 1
 3496  4121  4119 1
 3497  4122  4119 1
 3498  4123  4122 1
 3499  4125  4124 1
 3500  4126  4125 1
 3501  4127  4125 1
 3502  4128  4125 1
 3503  4129  4128 1
 3504  4131  4130 1
 3505  4132  4131 1
 3506  4133  4131 1
 3507  4134  4131 1
 3508  4135  4134 1
 3509  4137  4136 1
 3510  4138  4137 1
 3511  4139  4137 1
 3512  4140  4137 1
 3513  4141  4140 1
 3514  4143  4142 1
 3515  4144  4143 1
 3516  4145  4143 1
 3517  4146  4143 1
 3518  4147  4146 1
 3519  4149  4148 1
 3520  4150  4149 1
 3521  4151  4149 1
 3522  4152  4149 1
 3523  4153  4152 1
 3524  4155  4154 1
 3525  4156  4155 1
 3526  4157  4155 1
 3527  4158  4155 1
 3528  4159  4158 1
 3529  4161  4160 1
 3530  4162  4161 1
 3531  4163  4161 1
 3532  4164  4161 1
 3533  4165  4164 1
 3534  4167  4166 1
 3535  4168  4167 1
 3536  4169  4167 1
 3537  4170  4167 1
 3538  4171  4170 1
 3539  4173  4172 1
 3540  4174  4173 1
 3541  4175  4173 1
 3542  4176  4173 1
 3543  4177  4176 1
 3544  4179  4178 1
 3545  4180  4179 1
 3546  4181  4179 1
 3547  4182  4179 1
 3548  4183  4182 1
 3549  4185  4184 1
 3550  4186  4185 1
 3551  4187  4185 1
 3552  4188  4185 1
 3553  4189  4188 1
 3554  4191  4190 1
 3555  4192  4191 1
 3556  4193  4191 1
 3557  4194  4191 1
 3558  4195  4194 1
 3559  4197  4196 1
 3560  4198  4197 1
 3561  4199  4197 1
 3562  4200  4197 1
 3563  4201  4200 1
 3564  4203  4202 1
 3565  4204  4203 1
 3566  4205  4203 1
 3567  4206  4203 1
 3568  4207  4206 1
 3569  4209  4208 1
 3570  4210  4209 1
 3571  4211  4209 1
 3572  4212  4209 1
 3573  4213  4212 1
 3574  4215  4214 1
 3575  4216  4215 1
 3576  4217  4215 1
 3577  4218  4215 1
 3578  4219  4218 1
 3579  4221  4220 1
 3580  4222  4221 1
 3581  4223  4221 1
 3582  4224  4221 1
 3583  4225  4224 1
 3584  4227  4226 1
 3585  4228  4227 1
 3586  4229  4227 1
 3587  4230  4227 1
 3588  4231  4230 1
 3589  4233  4232 1
 3590  4234  4233 1
 3591  4235  4233 1
 3592  4236  4233 1
 3593  4237  4236 1
 3594  4239  4238 1
 3595  4240  4239 1
 3596  4241  4239 1
 3597  4242  4239 1
 3598  4243  4242 1
 3599  4245  4244 1
 3600  4246  4245 1
 3601  4247  4245 1
 3602  4248  4245 1
 3603  4249  4248 1
 3604  4251  4250 1
 3605  4252  4251 1
 3606  4253  4251 1
 3607  4254  4251 1
 3608  4255  4254 1
 3609  4257  4256 1
 3610  4258  4257 1
 3611  4259  4257 1
 3612  4260  4257 1
 3613  4261  4260 1
 3614  4263  4262 1
 3615  4264  4263 1
 3616  4265  4263 1
 3617  4266  4263 1
 3618  4267  4266 1
 3619  4269  4268 1
 3620  4270  4269 1
 3621  4271  4269 1
 3622  4272  4269 1
 3623  4273  4272 1
 3624  4275  4274 1
 3625  4276  4275 1
 3626  4277  4275 1
 3627  4278  4275 1
 3628  4279  4278 1
 3629  4281  4280 1
 3630  4282  4281 1
 3631  4283  4281 1
 3632  4284  4281 1
 3633  4285  4284 1
 3634  4287  4286 1
 3635  4288  4287 1
 3636  4289  4287 1
 3637  4290  4287 1
 3638  4291  4290 1
 3639  4293  4292 1
 3640  4294  4293 1
 3641  4295  4293 1
 3642  4296  4293 1
 3643  4297  4296 1
 3644  4299  4298 1
 3645  4300  4299 1
 3646  4301  4299 1
 3647  4302  4299 1
 3648  4303  4302 1
 3649  4305  4304 1
 3650  4306  4305 1
 3651  4307  4305 1
 3652  4308  4305 1
 3653  4309  4308 1
 3654  4311  4310 1
 3655  4312  4311 1
 3656  4313  4311 1
 3657  4314  4311 1
 3658  4315  4314 1
 3659  4317  4316 1
 3660  4318  4317 1
 3661  4319  4317 1
 3662  4320  4317 1
 3663  4321  4320 1
 3664  4323  4322 1
 3665  4324  4323 1
 3666  4325  4323 1
 3667  4326  4323 1
 3668  4327  4326 1
 3669  4329  4328 1
 3670  4330  4329 1
 3671  4331  4329 1
 3672  4332  4329 1
 3673  4333  4332 1
 3674  4335  4334 1
 3675  4336  4335 1
 3676  4337  4335 1
 3677  4338  4335 1
 3678  4339  4338 1
 3679  4341  4340 1
 3680  4342  4341 1
 3681  4343  4341 1
 3682  4344  4341 1
 3683  4345  4344 1
 3684  4347  4346 1
 3685  4348  4347 1
 3686  4349  4347 1
 3687  4350  4347 1
 3688  4351  4350 1
 3689  4353  4352 1
 3690  4354  4353 1
 3691  4355  4353 1
 3692  4356  4353 1
 3693  4357  4356 1
 3694  4359  4358 1
 3695  4360  4359 1
 3696  4361  4359 1
 3697  4362  4359 1
 3698  4363  4362 1
 3699  4365  4364 1
 3700  4366  4365 1
 3701  4367  4365 1
 3702  4368  4365 1
 3703  4369  4368 1
 3704  4371  4370 1
 3705  4372  4371 1
 3706  4373  4371 1
 3707  4374  4371 1
 3708  4375  4374 1
 3709  4377  4376 1
 3710  4378  4377 1
 3711  4379  4377 1
 3712  4380  4377 1
 3713  4381  4380 1
 3714  4383  4382 1
 3715  4384  4383 1
 3716  4385  4383 1
 3717  4386  4383 1
 3718  4387  4386 1
 3719  4389  4388 1
 3720  4390  4389 1
 3721  4391  4389 1
 3722  4392  4389 1
 3723  4393  4392 1
 3724  4395  4394 1
 3725  4396  4395 1
 3726  4397  4395 1
 3727  4398  4395 1
 3728  4399  4398 1
 3729  4401  4400 1
 3730  4402  4401 1
 3731  4403  4401 1
 3732  4404  4401 1
 3733  4405  4404 1
 3734  4407  4406 1
 3735  4408  4407 1
 3736  4409  4407 1
 3737  4410  4407 1
 3738  4411  4410 1
 3739  4413  4412 1
 3740  4414  4413 1
 3741  4415  4413 1
 3742  4416  4413 1
 3743  4417  4416 1
 3744  4419  4418 1
 3745  4420  4419 1
 3746  4421  4419 1
 3747  4422  4419 1
 3748  4423  4422 1
 3749  4425  4424 1
 3750  4426  4425 1
 3751  4427  4425 1
 3752  4428  4425 1
 3753  4429  4428 1
 3754  4431  4430 1
 3755  4432  4431 1
 3756  4433  4431 1
 3757  4434  4431 1
 3758  4435  4434 1
 3759  4437  4436 1
 3760  4438  4437 1
 3761  4439  4437 1
 3762  4440  4437 1
 3763  4441  4440 1
 3764  4443  4442 1
 3765  4444  4443 1
 3766  4445  4443 1
 3767  4446  4443 1
 3768  4447  4446 1
 3769  4449  4448 1
 3770  4450  4449 1
 3771  4451  4449 1
 3772  4452  4449 1
 3773  4453  4452 1
 3774  4455  4454 1
 3775  4456  4455 1
 3776  4457  4455 1
 3777  4458  4455 1
 3778  4459  4458 1
 3779  4461  4460 1
 3780  4462  4461 1
 3781  4463  4461 1
 3782  4464  4461 1
 3783  4465  4464 1
 3784  4467  4466 1
 3785  4468  4467 1
 3786  4469  4467 1
 3787  4470  4467 1
 3788  4471  4470 1
 3789  4473  4472 1
 3790  4474  4473 1
 3791  4475  4473 1
 3792  4476  4473 1
 3793  4477  4476 1
 3794  4479  4478 1
 3795  4480  4479 1
 3796  4481  4479 1
 3797  4482  4479 1
 3798  4483  4482 1
 3799  4485  4484 1
 3800  4486  4485 1
 3801  4487  4485 1
 3802  4488  4485 1
 3803  4489  4488 1
 3804  4491  4490 1
 3805  4492  4491 1
 3806  4493  4491 1
 3807  4494  4491 1
 3808  4495  4494 1
 3809  4497  4496 1
 3810  4498  4497 1
 3811  4499  4497 1
 3812  4500  4497 1
 3813  4501  4500 1
 3814  4503  4502 1
 3815  4504  4503 1
 3816  4505  4503 1
 3817  4506  4503 1
 3818  4507  4506 1
 3819  4509  4508 1
 3820  4510  4509 1
 3821  4511  4509 1
 3822  4512  4509 1
 3823  4513  4512 1
 3824  4515  4514 1
 3825  4516  4515 1
 3826  4517  4515 1
 3827  4518  4515 1
 3828  4519  4518 1
 3829  4521  4520 1
 3830  4522  4521 1
 3831  4523  4521 1
 3832  4524  4521 1
 3833  4525  4524 1
 3834  4527  4526 1
 3835  4528  4527 1
 3836  4529  4527 1
 3837  4530  4527 1
 3838  4531  4530 1
 3839  4533  4532 1
 3840  4534  4533 1
 3841  4535  4533 1
 3842  4536  4533 1
 3843  4537  4536 1
 3844  4539  4538 1
 3845  4540  4539 1
 3846  4541  4539 1
 3847  4542  4539 1
 3848  4543  4542 1
 3849  4545  4544 1
 3850  4546  4545 1
 3851  4547  4545 1
 3852  4548  4545 1
 3853  4549  4548 1
 3854  4551  4550 1
 3855  4552  4551 1
 3856  4553  4551 1
 3857  4554  4551 1
 3858  4555  4554 1
 3859  4557  4556 1
 3860  4558  4557 1
 3861  4559  4557 1
 3862  4560  4557 1
 3863  4561  4560 1
 3864  4563  4562 1
 3865  4564  4563 1
 3866  4565  4563 1
 3867  4566  4563 1
 3868  4567  4566 1
 3869  4569  4568 1
 3870  4570  4569 1
 3871  4571  4569 1
 3872  4572  4569 1
 3873  4573  4572 1
 3874  4575  4574 1
 3875  4576  4575 1
 3876  4577  4575 1
 3877  4578  4575 1
 3878  4579  4578 1
 3879  4581  4580 1
 3880  4582  4581 1
 3881  4583  4581 1
 3882  4584  4581 1
 3883  4585  4584 1
 3884  4587  4586 1
 3885  4588  4587 1
 3886  4589  4587 1
 3887  4590  4587 1
 3888  4591  4590 1
 3889  4593  4592 1
 3890  4594  4593 1
 3891  4595  4593 1
 3892  4596  4593 1
 3893  4597  4596 1
 3894  4599  4598 1
 3895  4600  4599 1
 3896  4601  4599 1
 3897  4602  4599 1
 3898  4603  4602 1
 3899  4605  4604 1
 3900  4606  4605 1
 3901  4607  4605 1
 3902  4608  4605 1
 3903  4609  4608 1
 3904  4611  4610 1
 3905  4612  4611 1
 3906  4613  4611 1
 3907  4614  4611 1
 3908  4615  4614 1
 3909  4617  4616 1
 3910  4618  4617 1
 3911  4619  4617 1
 3912  4620  4617 1
 3913  4621  4620 1
 3914  4623  4622 1
 3915  4624  4623 1
 3916  4625  4623 1
 3917  4626  4623 1
 3918  4627  4626 1
 3919  4629  4628 1
 3920  4630  4629 1
 3921  4631  4629 1
 3922  4632  4629 1
 3923  4633  4632 1
 3924  4635  4634 1
 3925  4636  4635 1
 3926  4637  4635 1
 3927  4638  4635 1
 3928  4639  4638 1
 3929  4641  4640 1
 3930  4642  4641 1
 3931  4643  4641 1
 3932  4644  4641 1
 3933  4645  4644 1
 3934  4647  4646 1
 3935  4648  4647 1
 3936  4649  4647 1
 3937  4650  4647 1
 3938  4651  4650 1
 3939  4653  4652 1
 3940  4654  4653 1
 3941  4655  4653 1
 3942  4656  4653 1
 3943  4657  4656 1
 3944  4659  4658 1
 3945  4660  4659 1
 3946  4661  4659 1
 3947  4662  4659 1
 3948  4663  4662 1
 3949  4665  4664 1
 3950  4666  4665 1
 3951  4667  4665 1
 3952  4668  4665 1
 3953  4669  4668 1
 3954  4671  4670 1
 3955  4672  4671 1
 3956  4673  4671 1
 3957  4674  4671 1
 3958  4675  4674 1
 3959  4677  4676 1
 3960  4678  4677 1
 3961  4679  4677 1
 3962  4680  4677 1
 3963  4681  4680 1
 3964  4683  4682 1
 3965  4684  4683 1
 3966  4685  4683 1
 3967  4686  4683 1
 3968  4687  4686 1
 3969  4689  4688 1
 3970  4690  4689 1
 3971  4691  4689 1
 3972  4692  4689 1
 3973  4693  4692 1
 3974  4695  4694 1
 3975  4696  4695 1
 3976  4697  4695 1
 3977  4698  4695 1
 3978  4699  4698 1
 3979  4701  4700 1
 3980  4702  4701 1
 3981  4703  4701 1
 3982  4704  4701 1
 3983  4705  4704 1
 3984  4707  4706 1
 3985  4708  4707 1
 3986  4709  4707 1
 3987  4710  4707 1
 3988  4711  4710 1
 3989  4713  4712 1
 3990  4714  4713 1
 3991  4715  4713 1
 3992  4716  4713 1
 3993  4717  4716 1
 3994  4719  4718 1
 3995  4720  4719 1
 3996  4721  4719 1
 3997  4722  4719 1
 3998  4723  4722 1
 3999  4725  4724 1
 4000  4726  4725 1
 4001  4727  4725 1
 4002  4728  4725 1
 4003  4729  4728 1
 4004  4731  4730 1
 4005  4732  4731 1
 4006  4733  4731 1
 4007  4734  4731 1
 4008  4735  4734 1
 4009  4737  4736 1
 4010  4738  4737 1
 4011  4739  4737 1
 4012  4740  4737 1
 4013  4741  4740 1
 4014  4743  4742 1
 4015  4744  4743 1
 4016  4745  4743 1
 4017  4746  4743 1
 4018  4747  4746 1
 4019  4749  4748 1
 4020  4750  4749 1
 4021  4751  4749 1
 4022  4752  4749 1
 4023  4753  4752 1
 4024  4755  4754 1
 4025  4756  4755 1
 4026  4757  4755 1
 4027  4758  4755 1
 4028  4759  4758 1
 4029  4761  4760 1
 4030  4762  4761 1
 4031  4763  4761 1
 4032  4764  4761 1
 4033  4765  4764 1
 4034  4767  4766 1
 4035  4768  4767 1
 4036  4769  4767 1
 4037  4770  4767 1
 4038  4771  4770 1
 4039  4773  4772 1
 4040  4774  4773 1
 4041  4775  4773 1
 4042  4776  4773 1
 4043  4777  4776 1
 4044  4779  4778 1
 4045  4780  4779 1
 4046  4781  4779 1
 4047  4782  4779 1
 4048  4783  4782 1
 4049  4785  4784 1
 4050  4786  4785 1
 4051  4787  4785 1
 4052  4788  4785 1
 4053  4789  4788 1
 4054  4791  4790 1
 4055  4792  4791 1
 4056  4793  4791 1
 4057  4794  4791 1
 4058  4795  4794 1
 4059  4797  4796 1
 4060  4798  4797 1
 4061  4799  4797 1
 4062  4800  4797 1
 4063  4801  4800 1
 4064  4803  4802 1
 4065  4804  4803 1
 4066  4805  4803 1
 4067  4806  4803 1
 4068  4807  4806 1
 4069  4809  4808 1
 4070  4810  4809 1
 4071  4811  4809 1
 4072  4812  4809 1
 4073  4813  4812 1
 4074  4815  4814 1
 4075  4816  4815 1
 4076  4817  4815 1
 4077  4818  4815 1
 4078  4819  4818 1
 4079  4821  4820 1
 4080  4822  4821 1
 4081  4823  4821 1
 4082  4824  4821 1
 4083  4825  4824 1
 4084  4827  4826 1
 4085  4828  4827 1
 4086  4829  4827 1
 4087  4830  4827 1
 4088  4831  4830 1
 4089  4833  4832 1
 4090  4834  4833 1
 4091  4835  4833 1
 4092  4836  4833 1
 4093  4837  4836 1
 4094  4839  4838 1
 4095  4840  4839 1
 4096  4841  4839 1
 4097  4842  4839 1
 4098  4843  4842 1
 4099  4845  4844 1
 4100  4846  4845 1
 4101  4847  4845 1
 4102  4848  4845 1
 4103  4849  4848 1
 4104  4851  4850 1
 4105  4852  4851 1
 4106  4853  4851 1
 4107  4854  4851 1
 4108  4855  4854 1
 4109  4857  4856 1
 4110  4858  4857 1
 4111  4859  4857 1
 4112  4860  4857 1
 4113  4861  4860 1
 4114  4863  4862 1
 4115  4864  4863 1
 4116  4865  4863 1
 4117  4866  4863 1
 4118  4867  4866 1
 4119  4869  4868 1
 4120  4870  4869 1
 4121  4871  4869 1
 4122  4872  4869 1
 4123  4873  4872 1
 4124  4875  4874 1
 4125  4876  4875 1
 4126  4877  4875 1
 4127  4878  4875 1
 4128  4879  4878 1
 4129  4881  4880 1
 4130  4882  4881 1
 4131  4883  4881 1
 4132  4884  4881 1
 4133  4885  4884 1
 4134  4887  4886 1
 4135  4888  4887 1
 4136  4889  4887 1
 4137  4890  4887 1
 4138  4891  4890 1
 4139  4893  4892 1
 4140  4894  4893 1
 4141  4895  4893 1
 4142  4896  4893 1
 4143  4897  4896 1
 4144  4899  4898 1
 4145  4900  4899 1
 4146  4901  4899 1
 4147  4902  4899 1
 4148  4903  4902 1
 4149  4905  4904 1
 4150  4906  4905 1
 4151  4907  4905 1
 4152  4908  4905 1
 4153  4909  4908 1
 4154  4911  4910 1
 4155  4912  4911 1
 4156  4913  4911 1
 4157  4914  4911 1
 4158  4915  4914 1
 4159  4917  4916 1
 4160  4918  4917 1
 4161  4919  4917 1
 4162  4920  4917 1
 4163  4921  4920 1
 4164  4923  4922 1
 4165  4924  4923 1
 4166  4925  4923 1
 4167  4926  4923 1
 4168  4927  4926 1
 4169  4929  4928 1
 4170  4930  4929 1
 4171  4931  4929 1
 4172  4932  4929 1
 4173  4933  4932 1
 4174  4935  4934 1
 4175  4936  4935 1
 4176  4937  4935 1
 4177  4938  4935 1
 4178  4939  4938 1
 4179  4941  4940 1
 4180  4942  4941 1
 4181  4943  4941 1
 4182  4944  4941 1
 4183  4945  4944 1
 4184  4947  4946 1
 4185  4948  4947 1
 4186  4949  4947 1
 4187  4950  4947 1
 4188  4951  4950 1
 4189  4953  4952 1
 4190  4954  4953 1
 4191  4955  4953 1
 4192  4956  4953 1
 4193  4957  4956 1
 4194  4959  4958 1
 4195  4960  4959 1
 4196  4961  4959 1
 4197  4962  4959 1
 4198  4963  4962 1
 4199  4965  4964 1
 4200  4966  4965 1
 4201  4967  4965 1
 4202  4968  4965 1
 4203  4969  4968 1
 4204  4971  4970 1
 4205  4972  4971 1
 4206  4973  4971 1
 4207  4974  4971 1
 4208  4975  4974 1
 4209  4977  4976 1
 4210  4978  4977 1
 4211  4979  4977 1
 4212  4980  4977 1
 4213  4981  4980 1
 4214  4983  4982 1
 4215  4984  4983 1
 4216  4985  4983 1
 4217  4986  4983 1
 4218  4987  4986 1
 4219  4989  4988 1
 4220  4990  4989 1
 4221  4991  4989 1
 4222  4992  4989 1
 4223  4993  4992 1
 4224  4995  4994 1
 4225  4996  4995 1
 4226  4997  4995 1
 4227  4998  4995 1
 4228  4999  4998 1
 4229  5001  5000 1
 4230  5002  5001 1
 4231  5003  5001 1
 4232  5004  5001 1
 4233  5005  5004 1
 4234  5007  5006 1
 4235  5008  5007 1
 4236  5009  5007 1
 4237  5010  5007 1
 4238  5011  5010 1
 4239  5013  5012 1
 4240  5014  5013 1
 4241  5015  5013 1
 4242  5016  5013 1
 4243  5017  5016 1
 4244  5019  5018 1
 4245  5020  5019 1
 4246  5021  5019 1
 4247  5022  5019 1
 4248  5023  5022 1
 4249  5025  5024 1
 4250  5026  5025 1
 4251  5027  5025 1
 4252  5028  5025 1
 4253  5029  5028 1
 4254  5031  5030 1
 4255  5032  5031 1
 4256  5033  5031 1
 4257  5034  5031 1
 4258  5035  5034 1
 4259  5037  5036 1
 4260  5038  5037 1
 4261  5039  5037 1
 4262  5040  5037 1
 4263  5041  5040 1
 4264  5043  5042 1
 4265  5044  5043 1
 4266  5045  5043 1
 4267  5046  5043 1
 4268  5047  5046 1
 4269  5049  5048 1
 4270  5050  5049 1
 4271  5051  5049 1
 4272  5052  5049 1
 4273  5053  5052 1
 4274  5055  5054 1
 4275  5056  5055 1
 4276  5057  5055 1
 4277  5058  5055 1
 4278  5059  5058 1
 4279  5061  5060 1
 4280  5062  5061 1
 4281  5063  5061 1
 4282  5064  5061 1
 4283  5065  5064 1
 4284  5067  5066 1
 4285  5068  5067 1
 4286  5069  5067 1
 4287  5070  5067 1
 4288  5071  5070 1
 4289  5073  5072 1
 4290  5074  5073 1
 4291  5075  5073 1
 4292  5076  5073 1
 4293  5077  5076 1
 4294  5079  5078 1
 4295  5080  5079 1
 4296  5081  5079 1
 4297  5082  5079 1
 4298  5083  5082 1
 4299  5085  5084 1
 4300  5086  5085 1
 4301  5087  5085 1
 4302  5088  5085 1
 4303  5089  5088 1
 4304  5091  5090 1
 4305  5092  5091 1
 4306  5093  5091 1
 4307  5094  5091 1
 4308  5095  5094 1
 4309  5097  5096 1
 4310  5098  5097 1
 4311  5099  5097 1
 4312  5100  5097 1
 4313  5101  5100 1
 4314  5103  5102 1
 4315  5104  5103 1
 4316  5105  5103 1
 4317  5106  5103 1
 4318  5107  5106 1
 4319  5109  5108 1
 4320  5110  5109 1
 4321  5111  5109 1
 4322  5112  5109 1
 4323  5113  5112 1
 4324  5115  5114 1
 4325  5116  5115 1
 4326  5117  5115 1
 4327  5118  5115 1
 4328  5119  5118 1
 4329  5121  5120 1
 4330  5122  5121 1
 4331  5123  5121 1
 4332  5124  5121 1
 4333  5125  5124 1
 4334  5127  5126 1
 4335  5128  5127 1
 4336  5129  5127 1
 4337  5130  5127 1
 4338  5131  5130 1
 4339  5133  5132 1
 4340  5134  5133 1
 4341  5135  5133 1
 4342  5136  5133 1
 4343  5137  5136 1
 4344  5139  5138 1
 4345  5140  5139 1
 4346  5141  5139 1
 4347  5142  5139 1
 4348  5143  5142 1
 4349  5145  5144 1
 4350  5146  5145 1
 4351  5147  5145 1
 4352  5148  5145 1
 4353  5149  5148 1
 4354  5151  5150 1
 4355  5152  5151 1
 4356  5153  5151 1
 4357  5154  5151 1
 4358  5155  5154 1
 4359  5157  5156 1
 4360  5158  5157 1
 4361  5159  5157 1
 4362  5160  5157 1
 4363  5161  5160 1
 4364  5163  5162 1
 4365  5164  5163 1
 4366  5165  5163 1
 4367  5166  5163 1
 4368  5167  5166 1
 4369  5169  5168 1
 4370  5170  5169 1
 4371  5171  5169 1
 4372  5172  5169 1
 4373  5173  5172 1
 4374  5175  5174 1
 4375  5176  5175 1
 4376  5177  5175 1
 4377  5178  5175 1
 4378  5179  5178 1
 4379  5181  5180 1
 4380  5182  5181 1
 4381  5183  5181 1
 4382  5184  5181 1
 4383  5185  5184 1
 4384  5187  5186 1
 4385  5188  5187 1
 4386  5189  5187 1
 4387  5190  5187 1
 4388  5191  5190 1
 4389  5193  5192 1
 4390  5194  5193 1
 4391  5195  5193 1
 4392  5196  5193 1
 4393  5197  5196 1
 4394  5199  5198 1
 4395  5200  5199 1
 4396  5201  5199 1
 4397  5202  5199 1
 4398  5203  5202 1
 4399  5205  5204 1
 4400  5206  5205 1
 4401  5207  5205 1
 4402  5208  5205 1
 4403  5209  5208 1
 4404  5211  5210 1
 4405  5212  5211 1
 4406  5213  5211 1
 4407  5214  5211 1
 4408  5215  5214 1
 4409  5217  5216 1
 4410  5218  5217 1
 4411  5219  5217 1
 4412  5220  5217 1
 4413  5221  5220 1
 4414  5223  5222 1
 4415  5224  5223 1
 4416  5225  5223 1
 4417  5226  5223 1
 4418  5227  5226 1
 4419  5229  5228 1
 4420  5230  5229 1
 4421  5231  5229 1
 4422  5232  5229 1
 4423  5233  5232 1
 4424  5235  5234 1
 4425  5236  5235 1
 4426  5237  5235 1
 4427  5238  5235 1
 4428  5239  5238 1
 4429  5241  5240 1
 4430  5242  5241 1
 4431  5243  5241 1
 4432  5244  5241 1
 4433  5245  5244 1
 4434  5247  5246 1
 4435  5248  5247 1
 4436  5249  5247 1
 4437  5250  5247 1
 4438  5251  5250 1
 4439  5253  5252 1
 4440  5254  5253 1
 4441  5255  5253 1
 4442  5256  5253 1
 4443  5257  5256 1
 4444  5259  5258 1
 4445  5260  5259 1
 4446  5261  5259 1
 4447  5262  5259 1
 4448  5263  5262 1
 4449  5265  5264 1
 4450  5266  5265 1
 4451  5267  5265 1
 4452  5268  5265 1
 4453  5269  5268 1
 4454  5271  5270 1
 4455  5272  5271 1
 4456  5273  5271 1
 4457  5274  5271 1
 4458  5275  5274 1
 4459  5277  5276 1
 4460  5278  5277 1
 4461  5279  5277 1
 4462  5280  5277 1
 4463  5281  5280 1
 4464  5283  5282 1
 4465  5284  5283 1
 4466  5285  5283 1
 4467  5286  5283 1
 4468  5287  5286 1
 4469  5289  5288 1
 4470  5290  5289 1
 4471  5291  5289 1
 4472  5292  5289 1
 4473  5293  5292 1
 4474  5295  5294 1
 4475  5296  5295 1
 4476  5297  5295 1
 4477  5298  5295 1
 4478  5299  5298 1
 4479  5301  5300 1
 4480  5302  5301 1
 4481  5303  5301 1
 4482  5304  5301 1
 4483  5305  5304 1
 4484  5307  5306 1
 4485  5308  5307 1
 4486  5309  5307 1
 4487  5310  5307 1
 4488  5311  5310 1
 4489  5313  5312 1
 4490  5314  5313 1
 4491  5315  5313 1
 4492  5316  5313 1
 4493  5317  5316 1
 4494  5319  5318 1
 4495  5320  5319 1
 4496  5321  5319 1
 4497  5322  5319 1
 4498  5323  5322 1
 4499  5325  5324 1
 4500  5326  5325 1
 4501  5327  5325 1
 4502  5328  5325 1
 4503  5329  5328 1
 4504  5331  5330 1
 4505  5332  5331 1
 4506  5333  5331 1
 4507  5334  5331 1
 4508  5335  5334 1
 4509  5337  5336 1
 4510  5338  5337 1
 4511  5339  5337 1
 4512  5340  5337 1
 4513  5341  5340 1
 4514  5343  5342 1
 4515  5344  5343 1
 4516  5345  5343 1
 4517  5346  5343 1
 4518  5347  5346 1
 4519  5349  5348 1
 4520  5350  5349 1
 4521  5351  5349 1
 4522  5352  5349 1
 4523  5353  5352 1
 4524  5355  5354 1
 4525  5356  5355 1
 4526  5357  5355 1
 4527  5358  5355 1
 4528  5359  5358 1
 4529  5361  5360 1
 4530  5362  5361 1
 4531  5363  5361 1
 4532  5364  5361 1
 4533  5365  5364 1
 4534  5367  5366 1
 4535  5368  5367 1
 4536  5369  5367 1
 4537  5370  5367 1
 4538  5371  5370 1
 4539  5373  5372 1
 4540  5374  5373 1
 4541  5375  5373 1
 4542  5376  5373 1
 4543  5377  5376 1
 4544  5379  5378 1
 4545  5380  5379 1
 4546  5381  5379 1
 4547  5382  5379 1
 4548  5383  5382 1
 4549  5385  5384 1
 4550  5386  5385 1
 4551  5387  5385 1
 4552  5388  5385 1
 4553  5389  5388 1
 4554  5391  5390 1
 4555  5392  5391 1
 4556  5393  5391 1
 4557  5394  5391 1
 4558  5395  5394 1
 4559  5397  5396 1
 4560  5398  5397 1
 4561  5399  5397 1
 4562  5400  5397 1
 4563  5401  5400 1
 4564  5403  5402 1
 4565  5404  5403 1
 4566  5405  5403 1
 4567  5406  5403 1
 4568  5407  5406 1
 4569  5409  5408 1
 4570  5410  5409 1
 4571  5411  5409 1
 4572  5412  5409 1
 4573  5413  5412 1
 4574  5415  5414 1
 4575  5416  5415 1
 4576  5417  5415 1
 4577  5418  5415 1
 4578  5419  5418 1
 4579  5421  5420 1
 4580  5422  5421 1
 4581  5423  5421 1
 4582  5424  5421 1
 4583  5425  5424 1
 4584  5427  5426 1
 4585  5428  5427 1
 4586  5429  5427 1
 4587  5430  5427 1
 4588  5431  5430 1
 4589  5433  5432 1
 4590  5434  5433 1
 4591  5435  5433 1
 4592  5436  5433 1
 4593  5437  5436 1
 4594  5439  5438 1
 4595  5440  5439 1
 4596  5441  5439 1
 4597  5442  5439 1
 4598  5443  5442 1
 4599  5445  5444 1
 4600  5446  5445 1
 4601  5447  5445 1
 4602  5448  5445 1
 4603  5449  5448 1
 4604  5451  5450 1
 4605  5452  5451 1
 4606  5453  5451 1
 4607  5454  5451 1
 4608  5455  5454 1
 4609  5457  5456 1
 4610  5458  5457 1
 4611  5459  5457 1
 4612  5460  5457 1
 4613  5461  5460 1
 4614  5463  5462 1
 4615  5464  5463 1
 4616  5465  5463 1
 4617  5466  5463 1
 4618  5467  5466 1
 4619  5469  5468 1
 4620  5470  5469 1
 4621  5471  5469 1
 4622  5472  5469 1
 4623  5473  5472 1
 4624  5475  5474 1
 4625  5476  5475 1
 4626  5477  5475 1
 4627  5478  5475 1
 4628  5479  5478 1
 4629  5481  5480 1
 4630  5482  5481 1
 4631  5483  5481 1
 4632  5484  5481 1
 4633  5485  5484 1
 4634  5487  5486 1
 4635  5488  5487 1
 4636  5489  5487 1
 4637  5490  5487 1
 4638  5491  5490 1
 4639  5493  5492 1
 4640  5494  5493 1
 4641  5495  5493 1
 4642  5496  5493 1
 4643  5497  5496 1
 4644  5499  5498 1
 4645  5500  5499 1
 4646  5501  5499 1
 4647  5502  5499 1
 4648  5503  5502 1
 4649  5505  5504 1
 4650  5506  5505 1
 4651  5507  5505 1
 4652  5508  5505 1
 4653  5509  5508 1
 4654  5511  5510 1
 4655  5512  5511 1
 4656  5513  5511 1
 4657  5514  5511 1
 4658  5515  5514 1
 4659  5517  5516 1
 4660  5518  5517 1
 4661  5519  5517 1
 4662  5520  5517 1
 4663  5521  5520 1
 4664  5523  5522 1
 4665  5524  5523 1
 4666  5525  5523 1
 4667  5526  5523 1
 4668  5527  5526 1
 4669  5529  5528 1
 4670  5530  5529 1
 4671  5531  5529 1
 4672  5532  5529 1
 4673  5533  5532 1
 4674  5535  5534 1
 4675  5536  5535 1
 4676  5537  5535 1
 4677  5538  5535 1
 4678  5539  5538 1
 4679  5541  5540 1
 4680  5542  5541 1
 4681  5543  5541 1
 4682  5544  5541 1
 4683  5545  5544 1
 4684  5547  5546 1
 4685  5548  5547 1
 4686  5549  5547 1
 4687  5550  5547 1
 4688  5551  5550 1
 4689  5553  5552 1
 4690  5554  5553 1
 4691  5555  5553 1
 4692  5556  5553 1
 4693  5557  5556 1
 4694  5559  5558 1
 4695  5560  5559 1
 4696  5561  5559 1
 4697  5562  5559 1
 4698  5563  5562 1
 4699  5565  5564 1
 4700  5566  5565 1
 4701  5567  5565 1
 4702  5568  5565 1
 4703  5569  5568 1
 4704  5571  5570 1
 4705  5572  5571 1
 4706  5573  5571 1
 4707  5574  5571 1
 4708  5575  5574 1
 4709  5577  5576 1
 4710  5578  5577 1
 4711  5579  5577 1
 4712  5580  5577 1
 4713  5581  5580 1
 4714  5583  5582 1
 4715  5584  5583 1
 4716  5585  5583 1
 4717  5586  5583 1
 4718  5587  5586 1
 4719  5589  5588 1
 4720  5590  5589 1
 4721  5591  5589 1
 4722  5592  5589 1
 4723  5593  5592 1
 4724  5595  5594 1
 4725  5596  5595 1
 4726  5597  5595 1
 4727  5598  5595 1
 4728  5599  5598 1
 4729  5601  5600 1
 4730  5602  5601 1
 4731  5603  5601 1
 4732  5604  5601 1
 4733  5605  5604 1
 4734  5607  5606 1
 4735  5608  5607 1
 4736  5609  5607 1
 4737  5610  5607 1
 4738  5611  5610 1
 4739  5613  5612 1
 4740  5614  5613 1
 4741  5615  5613 1
 4742  5616  5613 1
 4743  5617  5616 1
 4744  5619  5618 1
 4745  5620  5619 1
 4746  5621  5619 1
 4747  5622  5619 1
 4748  5623  5622 1
 4749  5625  5624 1
 4750  5626  5625 1
 4751  5627  5625 1
 4752  5628  5625 1
 4753  5629  5628 1
 4754  5631  5630 1
 4755  5632  5631 1
 4756  5633  5631 1
 4757  5634  5631 1
 4758  5635  5634 1
 4759  5637  5636 1
 4760  5638  5637 1
 4761  5639  5637 1
 4762  5640  5637 1
 4763  5641  5640 1
 4764  5643  5642 1
 4765  5644  5643 1
 4766  5645  5643 1
 4767  5646  5643 1
 4768  5647  5646 1
 4769  5649  5648 1
 4770  5650  5649 1
 4771  5651  5649 1
 4772  5652  5649 1
 4773  5653  5652 1
 4774  5655  5654 1
 4775  5656  5655 1
 4776  5657  5655 1
 4777  5658  5655 1
 4778  5659  5658 1
 4779  5661  5660 1
 4780  5662  5661 1
 4781  5663  5661 1
 4782  5664  5661 1
 4783  5665  5664 1
 4784  5667  5666 1
 4785  5668  5667 1
 4786  5669  5667 1
 4787  5670  5667 1
 4788  5671  5670 1
 4789  5673  5672 1
 4790  5674  5673 1
 4791  5675  5673 1
 4792  5676  5673 1
 4793  5677  5676 1
 4794  5679  5678 1
 4795  5680  5679 1
 4796  5681  5679 1
 4797  5682  5679 1
 4798  5683  5682 1
 4799  5685  5684 1
 4800  5686  5685 1
 4801  5687  5685 1
 4802  5688  5685 1
 4803  5689  5688 1
 4804  5691  5690 1
 4805  5692  5691 1
 4806  5693  5691 1
 4807  5694  5691 1
 4808  5695  5694 1
 4809  5697  5696 1
 4810  5698  5697 1
 4811  5699  5697 1
 4812  5700  5697 1
 4813  5701  5700 1
 4814  5703  5702 1
 4815  5704  5703 1
 4816  5705  5703 1
 4817  5706  5703 1
 4818  5707  5706 1
 4819  5709  5708 1
 4820  5710  5709 1
 4821  5711  5709 1
 4822  5712  5709 1
 4823  5713  5712 1
 4824  5715  5714 1
 4825  5716  5715 1
 4826  5717  5715 1
 4827  5718  5715 1
 4828  5719  5718 1
 4829  5721  5720 1
 4830  5722  5721 1
 4831  5723  5721 1
 4832  5724  5721 1
 4833  5725  5724 1
 4834  5727  5726 1
 4835  5728  5727 1
 4836  5729  5727 1
 4837  5730  5727 1
 4838  5731  5730 1
 4839  5733  5732 1
 4840  5734  5733 1
 4841  5735  5733 1
 4842  5736  5733 1
 4843  5737  5736 1
 4844  5739  5738 1
 4845  5740  5739 1
 4846  5741  5739 1
 4847  5742  5739 1
 4848  5743  5742 1
 4849  5745  5744 1
 4850  5746  5745 1
 4851  5747  5745 1
 4852  5748  5745 1
 4853  5749  5748 1
 4854  5751  5750 1
 4855  5752  5751 1
 4856  5753  5751 1
 4857  5754  5751 1
 4858  5755  5754 1
 4859  5757  5756 1
 4860  5758  5757 1
 4861  5759  5757 1
 4862  5760  5757 1
 4863  5761  5760 1
 4864  5763  5762 1
 4865  5764  5763 1
 4866  5765  5763 1
 4867  5766  5763 1
 4868  5767  5766 1
 4869  5769  5768 1
 4870  5770  5769 1
 4871  5771  5769 1
 4872  5772  5769 1
 4873  5773  5772 1
 4874  5775  5774 1
 4875  5776  5775 1
 4876  5777  5775 1
 4877  5778  5775 1
 4878  5779  5778 1
 4879  5781  5780 1
 4880  5782  5781 1
 4881  5783  5781 1
 4882  5784  5781 1
 4883  5785  5784 1
 4884  5787  5786 1
 4885  5788  5787 1
 4886  5789  5787 1
 4887  5790  5787 1
 4888  5791  5790 1
 4889  5793  5792 1
 4890  5794  5793 1
 4891  5795  5793 1
 4892  5796  5793 1
 4893  5797  5796 1
 4894  5799  5798 1
 4895  5800  5799 1
 4896  5801  5799 1
 4897  5802  5799 1
 4898  5803  5802 1
 4899  5805  5804 1
 4900  5806  5805 1
 4901  5807  5805 1
 4902  5808  5805 1
 4903  5809  5808 1
 4904  5811  5810 1
 4905  5812  5811 1
 4906  5813  5811 1
 4907  5814  5811 1
 4908  5815  5814 1
 4909  5817  5816 1
 4910  5818  5817 1
 4911  5819  5817 1
 4912  5820  5817 1
 4913  5821  5820 1
 4914  5823  5822 1
 4915  5824  5823 1
 4916  5825  5823 1
 4917  5826  5823 1
 4918  5827  5826 1
 4919  5829  5828 1
 4920  5830  5829 1
 4921  5831  5829 1
 4922  5832  5829 1
 4923  5833  5832 1
 4924  5835  5834 1
 4925  5836  5835 1
 4926  5837  5835 1
 4927  5838  5835 1
 4928  5839  5838 1
 4929  5841  5840 1
 4930  5842  5841 1
 4931  5843  5841 1
 4932  5844  5841 1
 4933  5845  5844 1
 4934  5847  5846 1
 4935  5848  5847 1
 4936  5849  5847 1
 4937  5850  5847 1
 4938  5851  5850 1
 4939  5853  5852 1
 4940  5854  5853 1
 4941  5855  5853 1
 4942  5856  5853 1
 4943  5857  5856 1
 4944  5859  5858 1
 4945  5860  5859 1
 4946  5861  5859 1
 4947  5862  5859 1
 4948  5863  5862 1
 4949  5865  5864 1
 4950  5866  5865 1
 4951  5867  5865 1
 4952  5868  5865 1
 4953  5869  5868 1
 4954  5871  5870 1
 4955  5872  5871 1
 4956  5873  5871 1
 4957  5874  5871 1
 4958  5875  5874 1
 4959  5877  5876 1
 4960  5878  5877 1
 4961  5879  5877 1
 4962  5880  5877 1
 4963  5881  5880 1
 4964  5883  5882 1
 4965  5884  5883 1
 4966  5885  5883 1
 4967  5886  5883 1
 4968  5887  5886 1
 4969  5889  5888 1
 4970  5890  5889 1
 4971  5891  5889 1
 4972  5892  5889 1
 4973  5893  5892 1
 4974  5895  5894 1
 4975  5896  5895 1
 4976  5897  5895 1
 4977  5898  5895 1
 4978  5899  5898 1
 4979  5901  5900 1
 4980  5902  5901 1
 4981  5903  5901 1
 4982  5904  5901 1
 4983  5905  5904 1
 4984  5907  5906 1
 4985  5908  5907 1
 4986  5909  5907 1
 4987  5910  5907 1
 4988  5911  5910 1
 4989  5913  5912 1
 4990  5914  5913 1
 4991  5915  5913 1
 4992  5916  5913 1
 4993  5917  5916 1
 4994  5919  5918 1
 4995  5920  5919 1
 4996  5921  5919 1
 4997  5922  5919 1
 4998  5923  5922 1
 4999  5925  5924 1
 5000  5926  5925 1
 5001  5927  5925 1
 5002  5928  5925 1
 5003  5929  5928 1
 5004  5931  5930 1
 5005  5932  5931 1
 5006  5933  5931 1
 5007  5934  5931 1
 5008  5935  5934 1
 5009  5937  5936 1
 5010  5938  5937 1
 5011  5939  5937 1
 5012  5940  5937 1
 5013  5941  5940 1
 5014  5943  5942 1
 5015  5944  5943 1
 5016  5945  5943 1
 5017  5946  5943 1
 5018  5947  5946 1
 5019  5949  5948 1
 5020  5950  5949 1
 5021  5951  5949 1
 5022  5952  5949 1
 5023  5953  5952 1
 5024  5955  5954 1
 5025  5956  5955 1
 5026  5957  5955 1
 5027  5958  5955 1
 5028  5959  5958 1
 5029  5961  5960 1
 5030  5962  5961 1
 5031  5963  5961 1
 5032  5964  5961 1
 5033  5965  5964 1
 5034  5967  5966 1
 5035  5968  5967 1
 5036  5969  5967 1
 5037  5970  5967 1
 5038  5971  5970 1
 5039  5973  5972 1
 5040  5974  5973 1
 5041  5975  5973 1
 5042  5976  5973 1
 5043  5977  5976 1
 5044  5979  5978 1
 5045  5980  5979 1
 5046  5981  5979 1
 5047  5982  5979 1
 5048  5983  5982 1
 5049  5985  5984 1
 5050  5986  5985 1
 5051  5987  5985 1
 5052  5988  5985 1
 5053  5989  5988 1
 5054  5991  5990 1
 5055  5992  5991 1
 5056  5993  5991 1
 5057  5994  5991 1
 5058  5995  5994 1
 5059  5997  5996 1
 5060  5998  5997 1
 5061  5999  5997 1
 5062  6000  5997 1
 5063  6001  6000 1
 5064  6003  6002 1
 5065  6004  6003 1
 5066  6005  6003 1
 5067  6006  6003 1
 5068  6007  6006 1
 5069  6009  6008 1
 5070  6010  6009 1
 5071  6011  6009 1
 5072  6012  6009 1
 5073  6013  6012 1
 5074  6015  6014 1
 5075  6016  6015 1
 5076  6017  6015 1
 5077  6018  6015 1
 5078  6019  6018 1
 5079  6021  6020 1
 5080  6022  6021 1
 5081  6023  6021 1
 5082  6024  6021 1
 5083  6025  6024 1
 5084  6027  6026 1
 5085  6028  6027 1
 5086  6029  6027 1
 5087  6030  6027 1
 5088  6031  6030 1
 5089  6033  6032 1
 5090  6034  6033 1
 5091  6035  6033 1
 5092  6036  6033 1
 5093  6037  6036 1
 5094  6039  6038 1
 5095  6040  6039 1
 5096  6041  6039 1
 5097  6042  6039 1
 5098  6043  6042 1
 5099  6045  6044 1
 5100  6046  6045 1
 5101  6047  6045 1
 5102  6048  6045 1
 5103  6049  6048 1
 5104  6051  6050 1
 5105  6052  6051 1
 5106  6053  6051 1
 5107  6054  6051 1
 5108  6055  6054 1
 5109  6057  6056 1
 5110  6058  6057 1
 5111  6059  6057 1
 5112  6060  6057 1
 5113  6061  6060 1
 5114  6063  6062 1
 5115  6064  6063 1
 5116  6065  6063 1
 5117  6066  6063 1
 5118  6067  6066 1
 5119  6069  6068 1
 5120  6070  6069 1
 5121  6071  6069 1
 5122  6072  6069 1
 5123  6073  6072 1
 5124  6075  6074 1
 5125  6076  6075 1
 5126  6077  6075 1
 5127  6078  6075 1
 5128  6079  6078 1
 5129  6081  6080 1
 5130  6082  6081 1
 5131  6083  6081 1
 5132  6084  6081 1
 5133  6085  6084 1
 5134  6087  6086 1
 5135  6088  6087 1
 5136  6089  6087 1
 5137  6090  6087 1
 5138  6091  6090 1
 5139  6093  6092 1
 5140  6094  6093 1
 5141  6095  6093 1
 5142  6096  6093 1
 5143  6097  6096 1
 5144  6099  6098 1
 5145  6100  6099 1
 5146  6101  6099 1
 5147  6102  6099 1
 5148  6103  6102 1
 5149  6105  6104 1
 5150  6106  6105 1
 5151  6107  6105 1
 5152  6108  6105 1
 5153  6109  6108 1
 5154  6111  6110 1
 5155  6112  6111 1
 5156  6113  6111 1
 5157  6114  6111 1
 5158  6115  6114 1
 5159  6117  6116 1
 5160  6118  6117 1
 5161  6119  6117 1
 5162  6120  6117 1
 5163  6121  6120 1
 5164  6123  6122 1
 5165  6124  6123 1
 5166  6125  6123 1
 5167  6126  6123 1
 5168  6127  6126 1
 5169  6129  6128 1
 5170  6130  6129 1
 5171  6131  6129 1
 5172  6132  6129 1
 5173  6133  6132 1
 5174  6135  6134 1
 5175  6136  6135 1
 5176  6137  6135 1
 5177  6138  6135 1
 5178  6139  6138 1
 5179  6141  6140 1
 5180  6142  6141 1
 5181  6143  6141 1
 5182  6144  6141 1
 5183  6145  6144 1
 5184  6147  6146 1
 5185  6148  6147 1
 5186  6149  6147 1
 5187  6150  6147 1
 5188  6151  6150 1
 5189  6153  6152 1
 5190  6154  6153 1
 5191  6155  6153 1
 5192  6156  6153 1
 5193  6157  6156 1
 5194  6159  6158 1
 5195  6160  6159 1
 5196  6161  6159 1
 5197  6162  6159 1
 5198  6163  6162 1
 5199  6165  6164 1
 5200  6166  6165 1
 5201  6167  6165 1
 5202  6168  6165 1
 5203  6169  6168 1
 5204  6171  6170 1
 5205  6172  6171 1
 5206  6173  6171 1
 5207  6174  6171 1
 5208  6175  6174 1
 5209  6177  6176 1
 5210  6178  6177 1
 5211  6179  6177 1
 5212  6180  6177 1
 5213  6181  6180 1
 5214  6183  6182 1
 5215  6184  6183 1
 5216  6185  6183 1
 5217  6186  6183 1
 5218  6187  6186 1
 5219  6189  6188 1
 5220  6190  6189 1
 5221  6191  6189 1
 5222  6192  6189 1
 5223  6193  6192 1
 5224  6195  6194 1
 5225  6196  6195 1
 5226  6197  6195 1
 5227  6198  6195 1
 5228  6199  6198 1
 5229  6201  6200 1
 5230  6202  6201 1
 5231  6203  6201 1
 5232  6204  6201 1
 5233  6205  6204 1
 5234  6207  6206 1
 5235  6208  6207 1
 5236  6209  6207 1
 5237  6210  6207 1
 5238  6211  6210 1
 5239  6213  6212 1
 5240  6214  6213 1
 5241  6215  6213 1
 5242  6216  6213 1
 5243  6217  6216 1
 5244  6219  6218 1
 5245  6220  6219 1
 5246  6221  6219 1
 5247  6222  6219 1
 5248  6223  6222 1
 5249  6225  6224 1
 5250  6226  6225 1
 5251  6227  6225 1
 5252  6228  6225 1
 5253  6229  6228 1
 5254  6231  6230 1
 5255  6232  6231 1
 5256  6233  6231 1
 5257  6234  6231 1
 5258  6235  6234 1
 5259  6237  6236 1
 5260  6238  6237 1
 5261  6239  6237 1
 5262  6240  6237 1
 5263  6241  6240 1
 5264  6243  6242 1
 5265  6244  6243 1
 5266  6245  6243 1
 5267  6246  6243 1
 5268  6247  6246 1
 5269  6249  6248 1
 5270  6250  6249 1
 5271  6251  6249 1
 5272  6252  6249 1
 5273  6253  6252 1
 5274  6255  6254 1
 5275  6256  6255 1
 5276  6257  6255 1
 5277  6258  6255 1
 5278  6259  6258 1
 5279  6261  6260 1
 5280  6262  6261 1
 5281  6263  6261 1
 5282  6264  6261 1
 5283  6265  6264 1
 5284  6267  6266 1
 5285  6268  6267 1
 5286  6269  6267 1
 5287  6270  6267 1
 5288  6271  6270 1
 5289  6273  6272 1
 5290  6274  6273 1
 5291  6275  6273 1
 5292  6276  6273 1
 5293  6277  6276 1
 5294  6279  6278 1
 5295  6280  6279 1
 5296  6281  6279 1
 5297  6282  6279 1
 5298  6283  6282 1
 5299  6285  6284 1
 5300  6286  6285 1
 5301  6287  6285 1
 5302  6288  6285 1
 5303  6289  6288 1
 5304  6291  6290 1
 5305  6292  6291 1
 5306  6293  6291 1
 5307  6294  6291 1
 5308  6295  6294 1
 5309  6297  6296 1
 5310  6298  6297 1
 5311  6299  6297 1
 5312  6300  6297 1
 5313  6301  6300 1
 5314  6303  6302 1
 5315  6304  6303 1
 5316  6305  6303 1
 5317  6306  6303 1
 5318  6307  6306 1
 5319  6309  6308 1
 5320  6310  6309 1
 5321  6311  6309 1
 5322  6312  6309 1
 5323  6313  6312 1
 5324  6315  6314 1
 5325  6316  6315 1
 5326  6317  6315 1
 5327  6318  6315 1
 5328  6319  6318 1
 5329  6321  6320 1
 5330  6322  6321 1
 5331  6323  6321 1
 5332  6324  6321 1
 5333  6325  6324 1
 5334  6327  6326 1
 5335  6328  6327 1
 5336  6329  6327 1
 5337  6330  6327 1
 5338  6331  6330 1
 5339  6333  6332 1
 5340  6334  6333 1
 5341  6335  6333 1
 5342  6336  6333 1
 5343  6337  6336 1
 5344  6339  6338 1
 5345  6340  6339 1
 5346  6341  6339 1
 5347  6342  6339 1
 5348  6343  6342 1
 5349  6345  6344 1
 5350  6346  6345 1
 5351  6347  6345 1
 5352  6348  6345 1
 5353  6349  6348 1
 5354  6351  6350 1
 5355  6352  6351 1
 5356  6353  6351 1
 5357  6354  6351 1
 5358  6355  6354 1
 5359  6357  6356 1
 5360  6358  6357 1
 5361  6359  6357 1
 5362  6360  6357 1
 5363  6361  6360 1
 5364  6363  6362 1
 5365  6364  6363 1
 5366  6365  6363 1
 5367  6366  6363 1
 5368  6367  6366 1
 5369  6369  6368 1
 5370  6370  6369 1
 5371  6371  6369 1
 5372  6372  6369 1
 5373  6373  6372 1
 5374  6375  6374 1
 5375  6376  6375 1
 5376  6377  6375 1
 5377  6378  6375 1
 5378  6379  6378 1
 5379  6381  6380 1
 5380  6382  6381 1
 5381  6383  6381 1
 5382  6384  6381 1
 5383  6385  6384 1
 5384  6387  6386 1
 5385  6388  6387 1
 5386  6389  6387 1
 5387  6390  6387 1
 5388  6391  6390 1
 5389  6393  6392 1
 5390  6394  6393 1
 5391  6395  6393 1
 5392  6396  6393 1
 5393  6397  6396 1
 5394  6399  6398 1
 5395  6400  6399 1
 5396  6401  6399 1
 5397  6402  6399 1
 5398  6403  6402 1
 5399  6405  6404 1
 5400  6406  6405 1
 5401  6407  6405 1
 5402  6408  6405 1
 5403  6409  6408 1
 5404  6411  6410 1
 5405  6412  6411 1
 5406  6413  6411 1
 5407  6414  6411 1
 5408  6415  6414 1
 5409  6417  6416 1
 5410  6418  6417 1
 5411  6419  6417 1
 5412  6420  6417 1
 5413  6421  6420 1
 5414  6423  6422 1
 5415  6424  6423 1
 5416  6425  6423 1
 5417  6426  6423 1
 5418  6427  6426 1
 5419  6429  6428 1
 5420  6430  6429 1
 5421  6431  6429 1
 5422  6432  6429 1
 5423  6433  6432 1
 5424  6435  6434 1
 5425  6436  6435 1
 5426  6437  6435 1
 5427  6438  6435 1
 5428  6439  6438 1
 5429  6441  6440 1
 5430  6442  6441 1
 5431  6443  6441 1
 5432  6444  6441 1
 5433  6445  6444 1
 5434  6447  6446 1
 5435  6448  6447 1
 5436  6449  6447 1
 5437  6450  6447 1
 5438  6451  6450 1
 5439  6453  6452 1
 5440  6454  6453 1
 5441  6455  6453 1
 5442  6456  6453 1
 5443  6457  6456 1
 5444  6459  6458 1
 5445  6460  6459 1
 5446  6461  6459 1
 5447  6462  6459 1
 5448  6463  6462 1
 5449  6465  6464 1
 5450  6466  6465 1
 5451  6467  6465 1
 5452  6468  6465 1
 5453  6469  6468 1
 5454  6471  6470 1
 5455  6472  6471 1
 5456  6473  6471 1
 5457  6474  6471 1
 5458  6475  6474 1
 5459  6477  6476 1
 5460  6478  6477 1
 5461  6479  6477 1
 5462  6480  6477 1
 5463  6481  6480 1
 5464  6483  6482 1
 5465  6484  6483 1
 5466  6485  6483 1
 5467  6486  6483 1
 5468  6487  6486 1
 5469  6489  6488 1
 5470  6490  6489 1
 5471  6491  6489 1
 5472  6492  6489 1
 5473  6493  6492 1
 5474  6495  6494 1
 5475  6496  6495 1
 5476  6497  6495 1
 5477  6498  6495 1
 5478  6499  6498 1
 5479  6501  6500 1
 5480  6502  6501 1
 5481  6503  6501 1
 5482  6504  6501 1
 5483  6505  6504 1
 5484  6507  6506 1
 5485  6508  6507 1
 5486  6509  6507 1
 5487  6510  6507 1
 5488  6511  6510 1
 5489  6513  6512 1
 5490  6514  6513 1
 5491  6515  6513 1
 5492  6516  6513 1
 5493  6517  6516 1
 5494  6519  6518 1
 5495  6520  6519 1
 5496  6521  6519 1
 5497  6522  6519 1
 5498  6523  6522 1
 5499  6525  6524 1
 5500  6526  6525 1
 5501  6527  6525 1
 5502  6528  6525 1
 5503  6529  6528 1
 5504  6531  6530 1
 5505  6532  6531 1
 5506  6533  6531 1
 5507  6534  6531 1
 5508  6535  6534 1
 5509  6537  6536 1
 5510  6538  6537 1
 5511  6539  6537 1
 5512  6540  6537 1
 5513  6541  6540 1
 5514  6543  6542 1
 5515  6544  6543 1
 5516  6545  6543 1
 5517  6546  6543 1
 5518  6547  6546 1
 5519  6549  6548 1
 5520  6550  6549 1
 5521  6551  6549 1
 5522  6552  6549 1
 5523  6553  6552 1
 5524  6555  6554 1
 5525  6556  6555 1
 5526  6557  6555 1
 5527  6558  6555 1
 5528  6559  6558 1
 5529  6561  6560 1
 5530  6562  6561 1
 5531  6563  6561 1
 5532  6564  6561 1
 5533  6565  6564 1
 5534  6567  6566 1
 5535  6568  6567 1
 5536  6569  6567 1
 5537  6570  6567 1
 5538  6571  6570 1
 5539  6573  6572 1
 5540  6574  6573 1
 5541  6575  6573 1
 5542  6576  6573 1
 5543  6577  6576 1
 5544  6579  6578 1
 5545  6580  6579 1
 5546  6581  6579 1
 5547  6582  6579 1
 5548  6583  6582 1
 5549  6585  6584 1
 5550  6586  6585 1
 5551  6587  6585 1
 5552  6588  6585 1
 5553  6589  6588 1
 5554  6591  6590 1
 5555  6592  6591 1
 5556  6593  6591 1
 5557  6594  6591 1
 5558  6595  6594 1
 5559  6597  6596 1
 5560  6598  6597 1
 5561  6599  6597 1
 5562  6600  6597 1
 5563  6601  6600 1
 5564  6603  6602 1
 5565  6604  6603 1
 5566  6605  6603 1
 5567  6606  6603 1
 5568  6607  6606 1
 5569  6609  6608 1
 5570  6610  6609 1
 5571  6611  6609 1
 5572  6612  6609 1
 5573  6613  6612 1
 5574  6615  6614 1
 5575  6616  6615 1
 5576  6617  6615 1
 5577  6618  6615 1
 5578  6619  6618 1
 5579  6621  6620 1
 5580  6622  6621 1
 5581  6623  6621 1
 5582  6624  6621 1
 5583  6625  6624 1
 5584  6627  6626 1
 5585  6628  6627 1
 5586  6629  6627 1
 5587  6630  6627 1
 5588  6631  6630 1
 5589  6633  6632 1
 5590  6634  6633 1
 5591  6635  6633 1
 5592  6636  6633 1
 5593  6637  6636 1
 5594  6639  6638 1
 5595  6640  6639 1
 5596  6641  6639 1
 5597  6642  6639 1
 5598  6643  6642 1
 5599  6645  6644 1
 5600  6646  6645 1
 5601  6647  6645 1
 5602  6648  6645 1
 5603  6649  6648 1
 5604  6651  6650 1
 5605  6652  6651 1
 5606  6653  6651 1
 5607  6654  6651 1
 5608  6655  6654 1
 5609  6657  6656 1
 5610  6658  6657 1
 5611  6659  6657 1
 5612  6660  6657 1
 5613  6661  6660 1
 5614  6663  6662 1
 5615  6664  6663 1
 5616  6665  6663 1
 5617  6666  6663 1
 5618  6667  6666 1
 5619  6669  6668 1
 5620  6670  6669 1
 5621  6671  6669 1
 5622  6672  6669 1
 5623  6673  6672 1
 5624  6675  6674 1
 5625  6676  6675 1
 5626  6677  6675 1
 5627  6678  6675 1
 5628  6679  6678 1
 5629  6681  6680 1
 5630  6682  6681 1
 5631  6683  6681 1
 5632  6684  6681 1
 5633  6685  6684 1
 5634  6687  6686 1
 5635  6688  6687 1
 5636  6689  6687 1
 5637  6690  6687 1
 5638  6691  6690 1
 5639  6693  6692 1
 5640  6694  6693 1
 5641  6695  6693 1
 5642  6696  6693 1
 5643  6697  6696 1
 5644  6699  6698 1
 5645  6700  6699 1
 5646  6701  6699 1
 5647  6702  6699 1
 5648  6703  6702 1
 5649  6705  6704 1
 5650  6706  6705 1
 5651  6707  6705 1
 5652  6708  6705 1
 5653  6709  6708 1
 5654  6711  6710 1
 5655  6712  6711 1
 5656  6713  6711 1
 5657  6714  6711 1
 5658  6715  6714 1
 5659  6717  6716 1
 5660  6718  6717 1
 5661  6719  6717 1
 5662  6720  6717 1
 5663  6721  6720 1
 5664  6723  6722 1
 5665  6724  6723 1
 5666  6725  6723 1
 5667  6726  6723 1
 5668  6727  6726 1
 5669  6729  6728 1
 5670  6730  6729 1
 5671  6731  6729 1
 5672  6732  6729 1
 5673  6733  6732 1
 5674  6735  6734 1
 5675  6736  6735 1
 5676  6737  6735 1
 5677  6738  6735 1
 5678  6739  6738 1
 5679  6741  6740 1
 5680  6742  6741 1
 5681  6743  6741 1
 5682  6744  6741 1
 5683  6745  6744 1
 5684  6747  6746 1
 5685  6748  6747 1
 5686  6749  6747 1
 5687  6750  6747 1
 5688  6751  6750 1
 5689  6753  6752 1
 5690  6754  6753 1
 5691  6755  6753 1
 5692  6756  6753 1
 5693  6757  6756 1
 5694  6759  6758 1
 5695  6760  6759 1
 5696  6761  6759 1
 5697  6762  6759 1
 5698  6763  6762 1
 5699  6765  6764 1
 5700  6766  6765 1
 5701  6767  6765 1
 5702  6768  6765 1
 5703  6769  6768 1
 5704  6771  6770 1
 5705  6772  6771 1
 5706  6773  6771 1
 5707  6774  6771 1
 5708  6775  6774 1
 5709  6777  6776 1
 5710  6778  6777 1
 5711  6779  6777 1
 5712  6780  6777 1
 5713  6781  6780 1
 5714  6783  6782 1
 5715  6784  6783 1
 5716  6785  6783 1
 5717  6786  6783 1
 5718  6787  6786 1
 5719  6789  6788 1
 5720  6790  6789 1
 5721  6791  6789 1
 5722  6792  6789 1
 5723  6793  6792 1
 5724  6795  6794 1
 5725  6796  6795 1
 5726  6797  6795 1
 5727  6798  6795 1
 5728  6799  6798 1
 5729  6801  6800 1
 5730  6802  6801 1
 5731  6803  6801 1
 5732  6804  6801 1
 5733  6805  6804 1
 5734  6807  6806 1
 5735  6808  6807 1
 5736  6809  6807 1
 5737  6810  6807 1
 5738  6811  6810 1
 5739  6813  6812 1
 5740  6814  6813 1
 5741  6815  6813 1
 5742  6816  6813 1
 5743  6817  6816 1
 5744  6819  6818 1
 5745  6820  6819 1
 5746  6821  6819 1
 5747  6822  6819 1
 5748  6823  6822 1
 5749  6825  6824 1
 5750  6826  6825 1
 5751  6827  6825 1
 5752  6828  6825 1
 5753  6829  6828 1
 5754  6831  6830 1
 5755  6832  6831 1
 5756  6833  6831 1
 5757  6834  6831 1
 5758  6835  6834 1
 5759  6837  6836 1
 5760  6838  6837 1
 5761  6839  6837 1
 5762  6840  6837 1
 5763  6841  6840 1
 5764  6843  6842 1
 5765  6844  6843 1
 5766  6845  6843 1
 5767  6846  6843 1
 5768  6847  6846 1
 5769  6849  6848 1
 5770  6850  6849 1
 5771  6851  6849 1
 5772  6852  6849 1
 5773  6853  6852 1
 5774  6855  6854 1
 5775  6856  6855 1
 5776  6857  6855 1
 5777  6858  6855 1
 5778  6859  6858 1
 5779  6861  6860 1
 5780  6862  6861 1
 5781  6863  6861 1
 5782  6864  6861 1
 5783  6865  6864 1
 5784  6867  6866 1
 5785  6868  6867 1
 5786  6869  6867 1
 5787  6870  6867 1
 5788  6871  6870 1
 5789  6873  6872 1
 5790  6874  6873 1
 5791  6875  6873 1
 5792  6876  6873 1
 5793  6877  6876 1
 5794  6879  6878 1
 5795  6880  6879 1
 5796  6881  6879 1
 5797  6882  6879 1
 5798  6883  6882 1
 5799  6885  6884 1
 5800  6886  6885 1
 5801  6887  6885 1
 5802  6888  6885 1
 5803  6889  6888 1
 5804  6891  6890 1
 5805  6892  6891 1
 5806  6893  6891 1
 5807  6894  6891 1
 5808  6895  6894 1
 5809  6897  6896 1
 5810  6898  6897 1
 5811  6899  6897 1
 5812  6900  6897 1
 5813  6901  6900 1
 5814  6903  6902 1
 5815  6904  6903 1
 5816  6905  6903 1
 5817  6906  6903 1
 5818  6907  6906 1
 5819  6909  6908 1
 5820  6910  6909 1
 5821  6911  6909 1
 5822  6912  6909 1
 5823  6913  6912 1
 5824  6915  6914 1
 5825  6916  6915 1
 5826  6917  6915 1
 5827  6918  6915 1
 5828  6919  6918 1
 5829  6921  6920 1
 5830  6922  6921 1
 5831  6923  6921 1
 5832  6924  6921 1
 5833  6925  6924 1
 5834  6927  6926 1
 5835  6928  6927 1
 5836  6929  6927 1
 5837  6930  6927 1
 5838  6931  6930 1
 5839  6933  6932 1
 5840  6934  6933 1
 5841  6935  6933 1
 5842  6936  6933 1
 5843  6937  6936 1
 5844  6939  6938 1
 5845  6940  6939 1
 5846  6941  6939 1
 5847  6942  6939 1
 5848  6943  6942 1
 5849  6945  6944 1
 5850  6946  6945 1
 5851  6947  6945 1
 5852  6948  6945 1
 5853  6949  6948 1
 5854  6951  6950 1
 5855  6952  6951 1
 5856  6953  6951 1
 5857  6954  6951 1
 5858  6955  6954 1
 5859  6957  6956 1
 5860  6958  6957 1
 5861  6959  6957 1
 5862  6960  6957 1
 5863  6961  6960 1
 5864  6963  6962 1
 5865  6964  6963 1
 5866  6965  6963 1
 5867  6966  6963 1
 5868  6967  6966 1
 5869  6969  6968 1
 5870  6970  6969 1
 5871  6971  6969 1
 5872  6972  6969 1
 5873  6973  6972 1
 5874  6975  6974 1
 5875  6976  6975 1
 5876  6977  6975 1
 5877  6978  6975 1
 5878  6979  6978 1
 5879  6981  6980 1
 5880  6982  6981 1
 5881  6983  6981 1
 5882  6984  6981 1
 5883  6985  6984 1
 5884  6987  6986 1
 5885  6988  6987 1
 5886  6989  6987 1
 5887  6990  6987 1
 5888  6991  6990 1
 5889  6993  6992 1
 5890  6994  6993 1
 5891  6995  6993 1
 5892  6996  6993 1
 5893  6997  6996 1
 5894  6999  6998 1
 5895  7000  6999 1
 5896  7001  6999 1
 5897  7002  6999 1
 5898  7003  7002 1
 5899  7005  7004 1
 5900  7006  7005 1
 5901  7007  7005 1
 5902  7008  7005 1
 5903  7009  7008 1
 5904  7011  7010 1
 5905  7012  7011 1
 5906  7013  7011 1
 5907  7014  7011 1
 5908  7015  7014 1
 5909  7017  7016 1
 5910  7018  7017 1
 5911  7019  7017 1
 5912  7020  7017 1
 5913  7021  7020 1
 5914  7023  7022 1
 5915  7024  7023 1
 5916  7025  7023 1
 5917  7026  7023 1
 5918  7027  7026 1
 5919  7029  7028 1
 5920  7030  7029 1
 5921  7031  7029 1
 5922  7032  7029 1
 5923  7033  7032 1
 5924  7035  7034 1
 5925  7036  7035 1
 5926  7037  7035 1
 5927  7038  7035 1
 5928  7039  7038 1
 5929  7041  7040 1
 5930  7042  7041 1
 5931  7043  7041 1
 5932  7044  7041 1
 5933  7045  7044 1
 5934  7047  7046 1
 5935  7048  7047 1
 5936  7049  7047 1
 5937  7050  7047 1
 5938  7051  7050 1
 5939  7053  7052 1
 5940  7054  7053 1
 5941  7055  7053 1
 5942  7056  7053 1
 5943  7057  7056 1
 5944  7059  7058 1
 5945  7060  7059 1
 5946  7061  7059 1
 5947  7062  7059 1
 5948  7063  7062 1
 5949  7065  7064 1
 5950  7066  7065 1
 5951  7067  7065 1
 5952  7068  7065 1
 5953  7069  7068 1
 5954  7071  7070 1
 5955  7072  7071 1
 5956  7073  7071 1
 5957  7074  7071 1
 5958  7075  7074 1
 5959  7077  7076 1
 5960  7078  7077 1
 5961  7079  7077 1
 5962  7080  7077 1
 5963  7081  7080 1
 5964  7083  7082 1
 5965  7084  7083 1
 5966  7085  7083 1
 5967  7086  7083 1
 5968  7087  7086 1
 5969  7089  7088 1
 5970  7090  7089 1
 5971  7091  7089 1
 5972  7092  7089 1
 5973  7093  7092 1
 5974  7095  7094 1
 5975  7096  7095 1
 5976  7097  7095 1
 5977  7098  7095 1
 5978  7099  7098 1
 5979  7101  7100 1
 5980  7102  7101 1
 5981  7103  7101 1
 5982  7104  7101 1
 5983  7105  7104 1
 5984  7107  7106 1
 5985  7108  7107 1
 5986  7109  7107 1
 5987  7110  7107 1
 5988  7111  7110 1
 5989  7113  7112 1
 5990  7114  7113 1
 5991  7115  7113 1
 5992  7116  7113 1
 5993  7117  7116 1
 5994  7119  7118 1
 5995  7120  7119 1
 5996  7121  7119 1
 5997  7122  7119 1
 5998  7123  7122 1
 5999  7125  7124 1
 6000  7126  7125 1
 6001  7127  7125 1
 6002  7128  7125 1
 6003  7129  7128 1
 6004  7131  7130 1
 6005  7132  7131 1
 6006  7133  7131 1
 6007  7134  7131 1
 6008  7135  7134 1
 6009  7137  7136 1
 6010  7138  7137 1
 6011  7139  7137 1
 6012  7140  7137 1
 6013  7141  7140 1
 6014  7143  7142 1
 6015  7144  7143 1
 6016  7145  7143 1
 6017  7146  7143 1
 6018  7147  7146 1
 6019  7149  7148 1
 6020  7150  7149 1
 6021  7151  7149 1
 6022  7152  7149 1
 6023  7153  7152 1
 6024  7155  7154 1
 6025  7156  7155 1
 6026  7157  7155 1
 6027  7158  7155 1
 6028  7159  7158 1
 6029  7161  7160 1
 6030  7162  7161 1
 6031  7163  7161 1
 6032  7164  7161 1
 6033  7165  7164 1
 6034  7167  7166 1
 6035  7168  7167 1
 6036  7169  7167 1
 6037  7170  7167 1
 6038  7171  7170 1
 6039  7173  7172 1
 6040  7174  7173 1
 6041  7175  7173 1
 6042  7176  7173 1
 6043  7177  7176 1
 6044  7179  7178 1
 6045  7180  7179 1
 6046  7181  7179 1
 6047  7182  7179 1
 6048  7183  7182 1
 6049  7185  7184 1
 6050  7186  7185 1
 6051  7187  7185 1
 6052  7188  7185 1
 6053  7189  7188 1
 6054  7191  7190 1
 6055  7192  7191 1
 6056  7193  7191 1
 6057  7194  7191 1
 6058  7195  7194 1
 6059  7197  7196 1
 6060  7198  7197 1
 6061  7199  7197 1
 6062  7200  7197 1
 6063  7201  7200 1
 6064  7203  7202 1
 6065  7204  7203 1
 6066  7205  7203 1
 6067  7206  7203 1
 6068  7207  7206 1
 6069  7209  7208 1
 6070  7210  7209 1
 6071  7211  7209 1
 6072  7212  7209 1
 6073  7213  7212 1
 6074  7215  7214 1
 6075  7216  7215 1
 6076  7217  7215 1
 6077  7218  7215 1
 6078  7219  7218 1
 6079  7221  7220 1
 6080  7222  7221 1
 6081  7223  7221 1
 6082  7224  7221 1
 6083  7225  7224 1
 6084  7227  7226 1
 6085  7228  7227 1
 6086  7229  7227 1
 6087  7230  7227 1
 6088  7231  7230 1
 6089  7233  7232 1
 6090  7234  7233 1
 6091  7235  7233 1
 6092  7236  7233 1
 6093  7237  7236 1
 6094  7239  7238 1
 6095  7240  7239 1
 6096  7241  7239 1
 6097  7242  7239 1
 6098  7243  7242 1
 6099  7245  7244 1
 6100  7246  7245 1
 6101  7247  7245 1
 6102  7248  7245 1
 6103  7249  7248 1
 6104  7251  7250 1
 6105  7252  7251 1
 6106  7253  7251 1
 6107  7254  7251 1
 6108  7255  7254 1
 6109  7257  7256 1
 6110  7258  7257 1
 6111  7259  7257 1
 6112  7260  7257 1
 6113  7261  7260 1
 6114  7263  7262 1
 6115  7264  7263 1
 6116  7265  7263 1
 6117  7266  7263 1
 6118  7267  7266 1
 6119  7269  7268 1
 6120  7270  7269 1
 6121  7271  7269 1
 6122  7272  7269 1
 6123  7273  7272 1
 6124  7275  7274 1
 6125  7276  7275 1
 6126  7277  7275 1
 6127  7278  7275 1
 6128  7279  7278 1
 6129  7281  7280 1
 6130  7282  7281 1
 6131  7283  7281 1
 6132  7284  7281 1
 6133  7285  7284 1
 6134  7287  7286 1
 6135  7288  7287 1
 6136  7289  7287 1
 6137  7290  7287 1
 6138  7291  7290 1
 6139  7293  7292 1
 6140  7294  7293 1
 6141  7295  7293 1
 6142  7296  7293 1
 6143  7297  7296 1
 6144  7299  7298 1
 6145  7300  7299 1
 6146  7301  7299 1
 6147  7302  7299 1
 6148  7303  7302 1
 6149  7305  7304 1
 6150  7306  7305 1
 6151  7307  7305 1
 6152  7308  7305 1
 6153  7309  7308 1
 6154  7311  7310 1
 6155  7312  7311 1
 6156  7313  7311 1
 6157  7314  7311 1
 6158  7315  7314 1
 6159  7317  7316 1
 6160  7318  7317 1
 6161  7319  7317 1
 6162  7320  7317 1
 6163  7321  7320 1
 6164  7323  7322 1
 6165  7324  7323 1
 6166  7325  7323 1
 6167  7326  7323 1
 6168  7327  7326 1
 6169  7329  7328 1
 6170  7330  7329 1
 6171  7331  7329 1
 6172  7332  7329 1
 6173  7333  7332 1
 6174  7335  7334 1
 6175  7336  7335 1
 6176  7337  7335 1
 6177  7338  7335 1
 6178  7339  7338 1
 6179  7341  7340 1
 6180  7342  7341 1
 6181  7343  7341 1
 6182  7344  7341 1
 6183  7345  7344 1
 6184  7347  7346 1
 6185  7348  7347 1
 6186  7349  7347 1
 6187  7350  7347 1
 6188  7351  7350 1
 6189  7353  7352 1
 6190  7354  7353 1
 6191  7355  7353 1
 6192  7356  7353 1
 6193  7357  7356 1
 6194  7359  7358 1
 6195  7360  7359 1
 6196  7361  7359 1
 6197  7362  7359 1
 6198  7363  7362 1
 6199  7365  7364 1
 6200  7366  7365 1
 6201  7367  7365 1
 6202  7368  7365 1
 6203  7369  7368 1
 6204  7371  7370 1
 6205  7372  7371 1
 6206  7373  7371 1
 6207  7374  7371 1
 6208  7375  7374 1
 6209  7377  7376 1
 6210  7378  7377 1
 6211  7379  7377 1
 6212  7380  7377 1
 6213  7381  7380 1
 6214  7383  7382 1
 6215  7384  7383 1
 6216  7385  7383 1
 6217  7386  7383 1
 6218  7387  7386 1
 6219  7389  7388 1
 6220  7390  7389 1
 6221  7391  7389 1
 6222  7392  7389 1
 6223  7393  7392 1
 6224  7395  7394 1
 6225  7396  7395 1
 6226  7397  7395 1
 6227  7398  7395 1
 6228  7399  7398 1
 6229  7401  7400 1
 6230  7402  7401 1
 6231  7403  7401 1
 6232  7404  7401 1
 6233  7405  7404 1
 6234  7407  7406 1
 6235  7408  7407 1
 6236  7409  7407 1
 6237  7410  7407 1
 6238  7411  7410 1
 6239  7413  7412 1
 6240  7414  7413 1
 6241  7415  7413 1
 6242  7416  7413 1
 6243  7417  7416 1
 6244  7419  7418 1
 6245  7420  7419 1
 6246  7421  7419 1
 6247  7422  7419 1
 6248  7423  7422 1
 6249  7425  7424 1
 6250  7426  7425 1
 6251  7427  7425 1
 6252  7428  7425 1
 6253  7429  7428 1
 6254  7431  7430 1
 6255  7432  7431 1
 6256  7433  7431 1
 6257  7434  7431 1
 6258  7435  7434 1
 6259  7437  7436 1
 6260  7438  7437 1
 6261  7439  7437 1
 6262  7440  7437 1
 6263  7441  7440 1
 6264  7443  7442 1
 6265  7444  7443 1
 6266  7445  7443 1
 6267  7446  7443 1
 6268  7447  7446 1
 6269  7449  7448 1
 6270  7450  7449 1
 6271  7451  7449 1
 6272  7452  7449 1
 6273  7453  7452 1
 6274  7455  7454 1
 6275  7456  7455 1
 6276  7457  7455 1
 6277  7458  7455 1
 6278  7459  7458 1
 6279  7461  7460 1
 6280  7462  7461 1
 6281  7463  7461 1
 6282  7464  7461 1
 6283  7465  7464 1
 6284  7467  7466 1
 6285  7468  7467 1
 6286  7469  7467 1
 6287  7470  7467 1
 6288  7471  7470 1
 6289  7473  7472 1
 6290  7474  7473 1
 6291  7475  7473 1
 6292  7476  7473 1
 6293  7477  7476 1
 6294  7479  7478 1
 6295  7480  7479 1
 6296  7481  7479 1
 6297  7482  7479 1
 6298  7483  7482 1
 6299  7485  7484 1
 6300  7486  7485 1
 6301  7487  7485 1
 6302  7488  7485 1
 6303  7489  7488 1
 6304  7491  7490 1
 6305  7492  7491 1
 6306  7493  7491 1
 6307  7494  7491 1
 6308  7495  7494 1
 6309  7497  7496 1
 6310  7498  7497 1
 6311  7499  7497 1
 6312  7500  7497 1
 6313  7501  7500 1
 6314  7503  7502 1
 6315  7504  7503 1
 6316  7505  7503 1
 6317  7506  7503 1
 6318  7507  7506 1
 6319  7509  7508 1
 6320  7510  7509 1
 6321  7511  7509 1
 6322  7512  7509 1
 6323  7513  7512 1
 6324  7515  7514 1
 6325  7516  7515 1
 6326  7517  7515 1
 6327  7518  7515 1
 6328  7519  7518 1
 6329  7521  7520 1
 6330  7522  7521 1
 6331  7523  7521 1
 6332  7524  7521 1
 6333  7525  7524 1
 6334  7527  7526 1
 6335  7528  7527 1
 6336  7529  7527 1
 6337  7530  7527 1
 6338  7531  7530 1
 6339  7533  7532 1
 6340  7534  7533 1
 6341  7535  7533 1
 6342  7536  7533 1
 6343  7537  7536 1
 6344  7539  7538 1
 6345  7540  7539 1
 6346  7541  7539 1
 6347  7542  7539 1
 6348  7543  7542 1
 6349  7545  7544 1
 6350  7546  7545 1
 6351  7547  7545 1
 6352  7548  7545 1
 6353  7549  7548 1
 6354  7551  7550 1
 6355  7552  7551 1
 6356  7553  7551 1
 6357  7554  7551 1
 6358  7555  7554 1
 6359  7557  7556 1
 6360  7558  7557 1
 6361  7559  7557 1
 6362  7560  7557 1
 6363  7561  7560 1
 6364  7563  7562 1
 6365  7564  7563 1
 6366  7565  7563 1
 6367  7566  7563 1
 6368  7567  7566 1
 6369  7569  7568 1
 6370  7570  7569 1
 6371  7571  7569 1
 6372  7572  7569 1
 6373  7573  7572 1
 6374  7575  7574 1
 6375  7576  7575 1
 6376  7577  7575 1
 6377  7578  7575 1
 6378  7579  7578 1
 6379  7581  7580 1
 6380  7582  7581 1
 6381  7583  7581 1
 6382  7584  7581 1
 6383  7585  7584 1
 6384  7587  7586 1
 6385  7588  7587 1
 6386  7589  7587 1
 6387  7590  7587 1
 6388  7591  7590 1
 6389  7593  7592 1
 6390  7594  7593 1
 6391  7595  7593 1
 6392  7596  7593 1
 6393  7597  7596 1
 6394  7599  7598 1
 6395  7600  7599 1
 6396  7601  7599 1
 6397  7602  7599 1
 6398  7603  7602 1
 6399  7605  7604 1
 6400  7606  7605 1
 6401  7607  7605 1
 6402  7608  7605 1
 6403  7609  7608 1
 6404  7611  7610 1
 6405  7612  7611 1
 6406  7613  7611 1
 6407  7614  7611 1
 6408  7615  7614 1
 6409  7617  7616 1
 6410  7618  7617 1
 6411  7619  7617 1
 6412  7620  7617 1
 6413  7621  7620 1
 6414  7623  7622 1
 6415  7624  7623 1
 6416  7625  7623 1
 6417  7626  7623 1
 6418  7627  7626 1
 6419  7629  7628 1
 6420  7630  7629 1
 6421  7631  7629 1
 6422  7632  7629 1
 6423  7633  7632 1
 6424  7635  7634 1
 6425  7636  7635 1
 6426  7637  7635 1
 6427  7638  7635 1
 6428  7639  7638 1
 6429  7641  7640 1
 6430  7642  7641 1
 6431  7643  7641 1
 6432  7644  7641 1
 6433  7645  7644 1
 6434  7647  7646 1
 6435  7648  7647 1
 6436  7649  7647 1
 6437  7650  7647 1
 6438  7651  7650 1
 6439  7653  7652 1
 6440  7654  7653 1
 6441  7655  7653 1
 6442  7656  7653 1
 6443  7657  7656 1
 6444  7659  7658 1
 6445  7660  7659 1
 6446  7661  7659 1
 6447  7662  7659 1
 6448  7663  7662 1
 6449  7665  7664 1
 6450  7666  7665 1
 6451  7667  7665 1
 6452  7668  7665 1
 6453  7669  7668 1
 6454  7671  7670 1
 6455  7672  7671 1
 6456  7673  7671 1
 6457  7674  7671 1
 6458  7675  7674 1
 6459  7677  7676 1
 6460  7678  7677 1
 6461  7679  7677 1
 6462  7680  7677 1
 6463  7681  7680 1
 6464  7683  7682 1
 6465  7684  7683 1
 6466  7685  7683 1
 6467  7686  7683 1
 6468  7687  7686 1
 6469  7689  7688 1
 6470  7690  7689 1
 6471  7691  7689 1
 6472  7692  7689 1
 6473  7693  7692 1
 6474  7695  7694 1
 6475  7696  7695 1
 6476  7697  7695 1
 6477  7698  7695 1
 6478  7699  7698 1
 6479  7701  7700 1
 6480  7702  7701 1
 6481  7703  7701 1
 6482  7704  7701 1
 6483  7705  7704 1
 6484  7707  7706 1
 6485  7708  7707 1
 6486  7709  7707 1
 6487  7710  7707 1
 6488  7711  7710 1
 6489  7713  7712 1
 6490  7714  7713 1
 6491  7715  7713 1
 6492  7716  7713 1
 6493  7717  7716 1
 6494  7719  7718 1
 6495  7720  7719 1
 6496  7721  7719 1
 6497  7722  7719 1
 6498  7723  7722 1
 6499  7725  7724 1
 6500  7726  7725 1
 6501  7727  7725 1
 6502  7728  7725 1
 6503  7729  7728 1
 6504  7731  7730 1
 6505  7732  7731 1
 6506  7733  7731 1
 6507  7734  7731 1
 6508  7735  7734 1
 6509  7737  7736 1
 6510  7738  7737 1
 6511  7739  7737 1
 6512  7740  7737 1
 6513  7741  7740 1
 6514  7743  7742 1
 6515  7744  7743 1
 6516  7745  7743 1
 6517  7746  7743 1
 6518  7747  7746 1
 6519  7749  7748 1
 6520  7750  7749 1
 6521  7751  7749 1
 6522  7752  7749 1
 6523  7753  7752 1
 6524  7755  7754 1
 6525  7756  7755 1
 6526  7757  7755 1
 6527  7758  7755 1
 6528  7759  7758 1
 6529  7761  7760 1
 6530  7762  7761 1
 6531  7763  7761 1
 6532  7764  7761 1
 6533  7765  7764 1
 6534  7767  7766 1
 6535  7768  7767 1
 6536  7769  7767 1
 6537  7770  7767 1
 6538  7771  7770 1
 6539  7773  7772 1
 6540  7774  7773 1
 6541  7775  7773 1
 6542  7776  7773 1
 6543  7777  7776 1
 6544  7779  7778 1
 6545  7780  7779 1
 6546  7781  7779 1
 6547  7782  7779 1
 6548  7783  7782 1
 6549  7785  7784 1
 6550  7786  7785 1
 6551  7787  7785 1
 6552  7788  7785 1
 6553  7789  7788 1
 6554  7791  7790 1
 6555  7792  7791 1
 6556  7793  7791 1
 6557  7794  7791 1
 6558  7795  7794 1
 6559  7797  7796 1
 6560  7798  7797 1
 6561  7799  7797 1
 6562  7800  7797 1
 6563  7801  7800 1
 6564  7803  7802 1
 6565  7804  7803 1
 6566  7805  7803 1
 6567  7806  7803 1
 6568  7807  7806 1
 6569  7809  7808 1
 6570  7810  7809 1
 6571  7811  7809 1
 6572  7812  7809 1
 6573  7813  7812 1
 6574  7815  7814 1
 6575  7816  7815 1
 6576  7817  7815 1
 6577  7818  7815 1
 6578  7819  7818 1
 6579  7821  7820 1
 6580  7822  7821 1
 6581  7823  7821 1
 6582  7824  7821 1
 6583  7825  7824 1
 6584  7827  7826 1
 6585  7828  7827 1
 6586  7829  7827 1
 6587  7830  7827 1
 6588  7831  7830 1
 6589  7833  7832 1
 6590  7834  7833 1
 6591  7835  7833 1
 6592  7836  7833 1
 6593  7837  7836 1
 6594  7839  7838 1
 6595  7840  7839 1
 6596  7841  7839 1
 6597  7842  7839 1
 6598  7843  7842 1
 6599  7845  7844 1
 6600  7846  7845 1
 6601  7847  7845 1
 6602  7848  7845 1
 6603  7849  7848 1
 6604  7851  7850 1
 6605  7852  7851 1
 6606  7853  7851 1
 6607  7854  7851 1
 6608  7855  7854 1
 6609  7857  7856 1
 6610  7858  7857 1
 6611  7859  7857 1
 6612  7860  7857 1
 6613  7861  7860 1
 6614  7863  7862 1
 6615  7864  7863 1
 6616  7865  7863 1
 6617  7866  7863 1
 6618  7867  7866 1
 6619  7869  7868 1
 6620  7870  7869 1
 6621  7871  7869 1
 6622  7872  7869 1
 6623  7873  7872 1
 6624  7875  7874 1
 6625  7876  7875 1
 6626  7877  7875 1
 6627  7878  7875 1
 6628  7879  7878 1
 6629  7881  7880 1
 6630  7882  7881 1
 6631  7883  7881 1
 6632  7884  7881 1
 6633  7885  7884 1
 6634  7887  7886 1
 6635  7888  7887 1
 6636  7889  7887 1
 6637  7890  7887 1
 6638  7891  7890 1
 6639  7893  7892 1
 6640  7894  7893 1
 6641  7895  7893 1
 6642  7896  7893 1
 6643  7897  7896 1
 6644  7899  7898 1
 6645  7900  7899 1
 6646  7901  7899 1
 6647  7902  7899 1
 6648  7903  7902 1
 6649  7905  7904 1
 6650  7906  7905 1
 6651  7907  7905 1
 6652  7908  7905 1
 6653  7909  7908 1
 6654  7911  7910 1
 6655  7912  7911 1
 6656  7913  7911 1
 6657  7914  7911 1
 6658  7915  7914 1
 6659  7917  7916 1
 6660  7918  7917 1
 6661  7919  7917 1
 6662  7920  7917 1
 6663  7921  7920 1
 6664  7923  7922 1
 6665  7924  7923 1
 6666  7925  7923 1
 6667  7926  7923 1
 6668  7927  7926 1
 6669  7929  7928 1
 6670  7930  7929 1
 6671  7931  7929 1
 6672  7932  7929 1
 6673  7933  7932 1
 6674  7935  7934 1
 6675  7936  7935 1
 6676  7937  7935 1
 6677  7938  7935 1
 6678  7939  7938 1
 6679  7941  7940 1
 6680  7942  7941 1
 6681  7943  7941 1
 6682  7944  7941 1
 6683  7945  7944 1
 6684  7947  7946 1
 6685  7948  7947 1
 6686  7949  7947 1
 6687  7950  7947 1
 6688  7951  7950 1
 6689  7953  7952 1
 6690  7954  7953 1
 6691  7955  7953 1
 6692  7956  7953 1
 6693  7957  7956 1
 6694  7959  7958 1
 6695  7960  7959 1
 6696  7961  7959 1
 6697  7962  7959 1
 6698  7963  7962 1
 6699  7965  7964 1
 6700  7966  7965 1
 6701  7967  7965 1
 6702  7968  7965 1
 6703  7969  7968 1
 6704  7971  7970 1
 6705  7972  7971 1
 6706  7973  7971 1
 6707  7974  7971 1
 6708  7975  7974 1
 6709  7977  7976 1
 6710  7978  7977 1
 6711  7979  7977 1
 6712  7980  7977 1
 6713  7981  7980 1
 6714  7983  7982 1
 6715  7984  7983 1
 6716  7985  7983 1
 6717  7986  7983 1
 6718  7987  7986 1
 6719  7989  7988 1
 6720  7990  7989 1
 6721  7991  7989 1
 6722  7992  7989 1
 6723  7993  7992 1
 6724  7995  7994 1
 6725  7996  7995 1
 6726  7997  7995 1
 6727  7998  7995 1
 6728  7999  7998 1
 6729  8001  8000 1
 6730  8002  8001 1
 6731  8003  8001 1
 6732  8004  8001 1
 6733  8005  8004 1
 6734  8007  8006 1
 6735  8008  8007 1
 6736  8009  8007 1
 6737  8010  8007 1
 6738  8011  8010 1
 6739  8013  8012 1
 6740  8014  8013 1
 6741  8015  8013 1
 6742  8016  8013 1
 6743  8017  8016 1
 6744  8019  8018 1
 6745  8020  8019 1
 6746  8021  8019 1
 6747  8022  8019 1
 6748  8023  8022 1
 6749  8025  8024 1
 6750  8026  8025 1
 6751  8027  8025 1
 6752  8028  8025 1
 6753  8029  8028 1
 6754  8031  8030 1
 6755  8032  8031 1
 6756  8033  8031 1
 6757  8034  8031 1
 6758  8035  8034 1
 6759  8037  8036 1
 6760  8038  8037 1
 6761  8039  8037 1
 6762  8040  8037 1
 6763  8041  8040 1
 6764  8043  8042 1
 6765  8044  8043 1
 6766  8045  8043 1
 6767  8046  8043 1
 6768  8047  8046 1
 6769  8049  8048 1
 6770  8050  8049 1
 6771  8051  8049 1
 6772  8052  8049 1
 6773  8053  8052 1
 6774  8055  8054 1
 6775  8056  8055 1
 6776  8057  8055 1
 6777  8058  8055 1
 6778  8059  8058 1
 6779  8061  8060 1
 6780  8062  8061 1
 6781  8063  8061 1
 6782  8064  8061 1
 6783  8065  8064 1
 6784  8067  8066 1
 6785  8068  8067 1
 6786  8069  8067 1
 6787  8070  8067 1
 6788  8071  8070 1
 6789  8073  8072 1
 6790  8074  8073 1
 6791  8075  8073 1
 6792  8076  8073 1
 6793  8077  8076 1
 6794  8079  8078 1
 6795  8080  8079 1
 6796  8081  8079 1
 6797  8082  8079 1
 6798  8083  8082 1
 6799  8085  8084 1
 6800  8086  8085 1
 6801  8087  8085 1
 6802  8088  8085 1
 6803  8089  8088 1
 6804  8091  8090 1
 6805  8092  8091 1
 6806  8093  8091 1
 6807  8094  8091 1
 6808  8095  8094 1
 6809  8097  8096 1
 6810  8098  8097 1
 6811  8099  8097 1
 6812  8100  8097 1
 6813  8101  8100 1
 6814  8103  8102 1
 6815  8104  8103 1
 6816  8105  8103 1
 6817  8106  8103 1
 6818  8107  8106 1
 6819  8109  8108 1
 6820  8110  8109 1
 6821  8111  8109 1
 6822  8112  8109 1
 6823  8113  8112 1
 6824  8115  8114 1
 6825  8116  8115 1
 6826  8117  8115 1
 6827  8118  8115 1
 6828  8119  8118 1
 6829  8121  8120 1
 6830  8122  8121 1
 6831  8123  8121 1
 6832  8124  8121 1
 6833  8125  8124 1
 6834  8127  8126 1
 6835  8128  8127 1
 6836  8129  8127 1
 6837  8130  8127 1
 6838  8131  8130 1
 6839  8133  8132 1
 6840  8134  8133 1
 6841  8135  8133 1
 6842  8136  8133 1
 6843  8137  8136 1
 6844  8139  8138 1
 6845  8140  8139 1
 6846  8141  8139 1
 6847  8142  8139 1
 6848  8143  8142 1
 6849  8145  8144 1
 6850  8146  8145 1
 6851  8147  8145 1
 6852  8148  8145 1
 6853  8149  8148 1
 6854  8151  8150 1
 6855  8152  8151 1
 6856  8153  8151 1
 6857  8154  8151 1
 6858  8155  8154 1
 6859  8157  8156 1
 6860  8158  8157 1
 6861  8159  8157 1
 6862  8160  8157 1
 6863  8161  8160 1
 6864  8163  8162 1
 6865  8164  8163 1
 6866  8165  8163 1
 6867  8166  8163 1
 6868  8167  8166 1
 6869  8169  8168 1
 6870  8170  8169 1
 6871  8171  8169 1
 6872  8172  8169 1
 6873  8173  8172 1
 6874  8175  8174 1
 6875  8176  8175 1
 6876  8177  8175 1
 6877  8178  8175 1
 6878  8179  8178 1
 6879  8181  8180 1
 6880  8182  8181 1
 6881  8183  8181 1
 6882  8184  8181 1
 6883  8185  8184 1
 6884  8187  8186 1
 6885  8188  8187 1
 6886  8189  8187 1
 6887  8190  8187 1
 6888  8191  8190 1
 6889  8193  8192 1
 6890  8194  8193 1
 6891  8195  8193 1
 6892  8196  8193 1
 6893  8197  8196 1
 6894  8199  8198 1
 6895  8200  8199 1
 6896  8201  8199 1
 6897  8202  8199 1
 6898  8203  8202 1
 6899  8205  8204 1
 6900  8206  8205 1
 6901  8207  8205 1
 6902  8208  8205 1
 6903  8209  8208 1
 6904  8211  8210 1
 6905  8212  8211 1
 6906  8213  8211 1
 6907  8214  8211 1
 6908  8215  8214 1
 6909  8217  8216 1
 6910  8218  8217 1
 6911  8219  8217 1
 6912  8220  8217 1
 6913  8221  8220 1
 6914  8223  8222 1
 6915  8224  8223 1
 6916  8225  8223 1
 6917  8226  8223 1
 6918  8227  8226 1
 6919  8229  8228 1
 6920  8230  8229 1
 6921  8231  8229 1
 6922  8232  8229 1
 6923  8233  8232 1
 6924  8235  8234 1
 6925  8236  8235 1
 6926  8237  8235 1
 6927  8238  8235 1
 6928  8239  8238 1
 6929  8241  8240 1
 6930  8242  8241 1
 6931  8243  8241 1
 6932  8244  8241 1
 6933  8245  8244 1
 6934  8247  8246 1
 6935  8248  8247 1
 6936  8249  8247 1
 6937  8250  8247 1
 6938  8251  8250 1
 6939  8253  8252 1
 6940  8254  8253 1
 6941  8255  8253 1
 6942  8256  8253 1
 6943  8257  8256 1
 6944  8259  8258 1
 6945  8260  8259 1
 6946  8261  8259 1
 6947  8262  8259 1
 6948  8263  8262 1
 6949  8265  8264 1
 6950  8266  8265 1
 6951  8267  8265 1
 6952  8268  8265 1
 6953  8269  8268 1
 6954  8271  8270 1
 6955  8272  8271 1
 6956  8273  8271 1
 6957  8274  8271 1
 6958  8275  8274 1
 6959  8277  8276 1
 6960  8278  8277 1
 6961  8279  8277 1
 6962  8280  8277 1
 6963  8281  8280 1
 6964  8283  8282 1
 6965  8284  8283 1
 6966  8285  8283 1
 6967  8286  8283 1
 6968  8287  8286 1
 6969  8289  8288 1
 6970  8290  8289 1
 6971  8291  8289 1
 6972  8292  8289 1
 6973  8293  8292 1
 6974  8295  8294 1
 6975  8296  8295 1
 6976  8297  8295 1
 6977  8298  8295 1
 6978  8299  8298 1
 6979  8301  8300 1
 6980  8302  8301 1
 6981  8303  8301 1
 6982  8304  8301 1
 6983  8305  8304 1
 6984  8307  8306 1
 6985  8308  8307 1
 6986  8309  8307 1
 6987  8310  8307 1
 6988  8311  8310 1
 6989  8313  8312 1
 6990  8314  8313 1
 6991  8315  8313 1
 6992  8316  8313 1
 6993  8317  8316 1
 6994  8319  8318 1
 6995  8320  8319 1
 6996  8321  8319 1
 6997  8322  8319 1
 6998  8323  8322 1
 6999  8325  8324 1
 7000  8326  8325 1
 7001  8327  8325 1
 7002  8328  8325 1
 7003  8329  8328 1
 7004  8331  8330 1
 7005  8332  8331 1
 7006  8333  8331 1
 7007  8334  8331 1
 7008  8335  8334 1
 7009  8337  8336 1
 7010  8338  8337 1
 7011  8339  8337 1
 7012  8340  8337 1
 7013  8341  8340 1
 7014  8343  8342 1
 7015  8344  8343 1
 7016  8345  8343 1
 7017  8346  8343 1
 7018  8347  8346 1
 7019  8349  8348 1
 7020  8350  8349 1
 7021  8351  8349 1
 7022  8352  8349 1
 7023  8353  8352 1
 7024  8355  8354 1
 7025  8356  8355 1
 7026  8357  8355 1
 7027  8358  8355 1
 7028  8359  8358 1
 7029  8361  8360 1
 7030  8362  8361 1
 7031  8363  8361 1
 7032  8364  8361 1
 7033  8365  8364 1
 7034  8367  8366 1
 7035  8368  8367 1
 7036  8369  8367 1
 7037  8370  8367 1
 7038  8371  8370 1
 7039  8373  8372 1
 7040  8374  8373 1
 7041  8375  8373 1
 7042  8376  8373 1
 7043  8377  8376 1
 7044  8379  8378 1
 7045  8380  8379 1
 7046  8381  8379 1
 7047  8382  8379 1
 7048  8383  8382 1
 7049  8385  8384 1
 7050  8386  8385 1
 7051  8387  8385 1
 7052  8388  8385 1
 7053  8389  8388 1
 7054  8391  8390 1
 7055  8392  8391 1
 7056  8393  8391 1
 7057  8394  8391 1
 7058  8395  8394 1
 7059  8397  8396 1
 7060  8398  8397 1
 7061  8399  8397 1
 7062  8400  8397 1
 7063  8401  8400 1
 7064  8403  8402 1
 7065  8404  8403 1
 7066  8405  8403 1
 7067  8406  8403 1
 7068  8407  8406 1
 7069  8409  8408 1
 7070  8410  8409 1
 7071  8411  8409 1
 7072  8412  8409 1
 7073  8413  8412 1
 7074  8415  8414 1
 7075  8416  8415 1
 7076  8417  8415 1
 7077  8418  8415 1
 7078  8419  8418 1
 7079  8421  8420 1
 7080  8422  8421 1
 7081  8423  8421 1
 7082  8424  8421 1
 7083  8425  8424 1
 7084  8427  8426 1
 7085  8428  8427 1
 7086  8429  8427 1
 7087  8430  8427 1
 7088  8431  8430 1
 7089  8433  8432 1
 7090  8434  8433 1
 7091  8435  8433 1
 7092  8436  8433 1
 7093  8437  8436 1
 7094  8439  8438 1
 7095  8440  8439 1
 7096  8441  8439 1
 7097  8442  8439 1
 7098  8443  8442 1
 7099  8445  8444 1
 7100  8446  8445 1
 7101  8447  8445 1
 7102  8448  8445 1
 7103  8449  8448 1
 7104  8451  8450 1
 7105  8452  8451 1
 7106  8453  8451 1
 7107  8454  8451 1
 7108  8455  8454 1
 7109  8457  8456 1
 7110  8458  8457 1
 7111  8459  8457 1
 7112  8460  8457 1
 7113  8461  8460 1
 7114  8463  8462 1
 7115  8464  8463 1
 7116  8465  8463 1
 7117  8466  8463 1
 7118  8467  8466 1
 7119  8469  8468 1
 7120  8470  8469 1
 7121  8471  8469 1
 7122  8472  8469 1
 7123  8473  8472 1
 7124  8475  8474 1
 7125  8476  8475 1
 7126  8477  8475 1
 7127  8478  8475 1
 7128  8479  8478 1
 7129  8481  8480 1
 7130  8482  8481 1
 7131  8483  8481 1
 7132  8484  8481 1
 7133  8485  8484 1
 7134  8487  8486 1
 7135  8488  8487 1
 7136  8489  8487 1
 7137  8490  8487 1
 7138  8491  8490 1
 7139  8493  8492 1
 7140  8494  8493 1
 7141  8495  8493 1
 7142  8496  8493 1
 7143  8497  8496 1
 7144  8499  8498 1
 7145  8500  8499 1
 7146  8501  8499 1
 7147  8502  8499 1
 7148  8503  8502 1
 7149  8505  8504 1
 7150  8506  8505 1
 7151  8507  8505 1
 7152  8508  8505 1
 7153  8509  8508 1
 7154  8511  8510 1
 7155  8512  8511 1
 7156  8513  8511 1
 7157  8514  8511 1
 7158  8515  8514 1
 7159  8517  8516 1
 7160  8518  8517 1
 7161  8519  8517 1
 7162  8520  8517 1
 7163  8521  8520 1
 7164  8523  8522 1
 7165  8524  8523 1
 7166  8525  8523 1
 7167  8526  8523 1
 7168  8527  8526 1
 7169  8529  8528 1
 7170  8530  8529 1
 7171  8531  8529 1
 7172  8532  8529 1
 7173  8533  8532 1
 7174  8535  8534 1
 7175  8536  8535 1
 7176  8537  8535 1
 7177  8538  8535 1
 7178  8539  8538 1
 7179  8541  8540 1
 7180  8542  8541 1
 7181  8543  8541 1
 7182  8544  8541 1
 7183  8545  8544 1
 7184  8547  8546 1
 7185  8548  8547 1
 7186  8549  8547 1
 7187  8550  8547 1
 7188  8551  8550 1
 7189  8553  8552 1
 7190  8554  8553 1
 7191  8555  8553 1
 7192  8556  8553 1
 7193  8557  8556 1
 7194  8559  8558 1
 7195  8560  8559 1
 7196  8561  8559 1
 7197  8562  8559 1
 7198  8563  8562 1
 7199  8565  8564 1
 7200  8566  8565 1
 7201  8567  8565 1
 7202  8568  8565 1
 7203  8569  8568 1
 7204  8571  8570 1
 7205  8572  8571 1
 7206  8573  8571 1
 7207  8574  8571 1
 7208  8575  8574 1
 7209  8577  8576 1
 7210  8578  8577 1
 7211  8579  8577 1
 7212  8580  8577 1
 7213  8581  8580 1
 7214  8583  8582 1
 7215  8584  8583 1
 7216  8585  8583 1
 7217  8586  8583 1
 7218  8587  8586 1
 7219  8589  8588 1
 7220  8590  8589 1
 7221  8591  8589 1
 7222  8592  8589 1
 7223  8593  8592 1
 7224  8595  8594 1
 7225  8596  8595 1
 7226  8597  8595 1
 7227  8598  8595 1
 7228  8599  8598 1
 7229  8601  8600 1
 7230  8602  8601 1
 7231  8603  8601 1
 7232  8604  8601 1
 7233  8605  8604 1
 7234  8607  8606 1
 7235  8608  8607 1
 7236  8609  8607 1
 7237  8610  8607 1
 7238  8611  8610 1
 7239  8613  8612 1
 7240  8614  8613 1
 7241  8615  8613 1
 7242  8616  8613 1
 7243  8617  8616 1
 7244  8619  8618 1
 7245  8620  8619 1
 7246  8621  8619 1
 7247  8622  8619 1
 7248  8623  8622 1
 7249  8625  8624 1
 7250  8626  8625 1
 7251  8627  8625 1
 7252  8628  8625 1
 7253  8629  8628 1
 7254  8631  8630 1
 7255  8632  8631 1
 7256  8633  8631 1
 7257  8634  8631 1
 7258  8635  8634 1
 7259  8637  8636 1
 7260  8638  8637 1
 7261  8639  8637 1
 7262  8640  8637 1
 7263  8641  8640 1
 7264  8643  8642 1
 7265  8644  8643 1
 7266  8645  8643 1
 7267  8646  8643 1
 7268  8647  8646 1
 7269  8649  8648 1
 7270  8650  8649 1
 7271  8651  8649 1
 7272  8652  8649 1
 7273  8653  8652 1
 7274  8655  8654 1
 7275  8656  8655 1
 7276  8657  8655 1
 7277  8658  8655 1
 7278  8659  8658 1
 7279  8661  8660 1
 7280  8662  8661 1
 7281  8663  8661 1
 7282  8664  8661 1
 7283  8665  8664 1
 7284  8667  8666 1
 7285  8668  8667 1
 7286  8669  8667 1
 7287  8670  8667 1
 7288  8671  8670 1
 7289  8673  8672 1
 7290  8674  8673 1
 7291  8675  8673 1
 7292  8676  8673 1
 7293  8677  8676 1
 7294  8679  8678 1
 7295  8680  8679 1
 7296  8681  8679 1
 7297  8682  8679 1
 7298  8683  8682 1
 7299  8685  8684 1
 7300  8686  8685 1
 7301  8687  8685 1
 7302  8688  8685 1
 7303  8689  8688 1
 7304  8691  8690 1
 7305  8692  8691 1
 7306  8693  8691 1
 7307  8694  8691 1
 7308  8695  8694 1
 7309  8697  8696 1
 7310  8698  8697 1
 7311  8699  8697 1
 7312  8700  8697 1
 7313  8701  8700 1
 7314  8703  8702 1
 7315  8704  8703 1
 7316  8705  8703 1
 7317  8706  8703 1
 7318  8707  8706 1
 7319  8709  8708 1
 7320  8710  8709 1
 7321  8711  8709 1
 7322  8712  8709 1
 7323  8713  8712 1
 7324  8715  8714 1
 7325  8716  8715 1
 7326  8717  8715 1
 7327  8718  8715 1
 7328  8719  8718 1
 7329  8721  8720 1
 7330  8722  8721 1
 7331  8723  8721 1
 7332  8724  8721 1
 7333  8725  8724 1
 7334  8727  8726 1
 7335  8728  8727 1
 7336  8729  8727 1
 7337  8730  8727 1
 7338  8731  8730 1
 7339  8733  8732 1
 7340  8734  8733 1
 7341  8735  8733 1
 7342  8736  8733 1
 7343  8737  8736 1
 7344  8739  8738 1
 7345  8740  8739 1
 7346  8741  8739 1
 7347  8742  8739 1
 7348  8743  8742 1
 7349  8745  8744 1
 7350  8746  8745 1
 7351  8747  8745 1
 7352  8748  8745 1
 7353  8749  8748 1
 7354  8751  8750 1
 7355  8752  8751 1
 7356  8753  8751 1
 7357  8754  8751 1
 7358  8755  8754 1
 7359  8757  8756 1
 7360  8758  8757 1
 7361  8759  8757 1
 7362  8760  8757 1
 7363  8761  8760 1
 7364  8763  8762 1
 7365  8764  8763 1
 7366  8765  8763 1
 7367  8766  8763 1
 7368  8767  8766 1
 7369  8769  8768 1
 7370  8770  8769 1
 7371  8771  8769 1
 7372  8772  8769 1
 7373  8773  8772 1
 7374  8775  8774 1
 7375  8776  8775 1
 7376  8777  8775 1
 7377  8778  8775 1
 7378  8779  8778 1
 7379  8781  8780 1
 7380  8782  8781 1
 7381  8783  8781 1
 7382  8784  8781 1
 7383  8785  8784 1
 7384  8787  8786 1
 7385  8788  8787 1
 7386  8789  8787 1
 7387  8790  8787 1
 7388  8791  8790 1
 7389  8793  8792 1
 7390  8794  8793 1
 7391  8795  8793 1
 7392  8796  8793 1
 7393  8797  8796 1
 7394  8799  8798 1
 7395  8800  8799 1
 7396  8801  8799 1
 7397  8802  8799 1
 7398  8803  8802 1
 7399  8805  8804 1
 7400  8806  8805 1
 7401  8807  8805 1
 7402  8808  8805 1
 7403  8809  8808 1
 7404  8811  8810 1
 7405  8812  8811 1
 7406  8813  8811 1
 7407  8814  8811 1
 7408  8815  8814 1
 7409  8817  8816 1
 7410  8818  8817 1
 7411  8819  8817 1
 7412  8820  8817 1
 7413  8821  8820 1
 7414  8823  8822 1
 7415  8824  8823 1
 7416  8825  8823 1
 7417  8826  8823 1
 7418  8827  8826 1
 7419  8829  8828 1
 7420  8830  8829 1
 7421  8831  8829 1
 7422  8832  8829 1
 7423  8833  8832 1
 7424  8835  8834 1
 7425  8836  8835 1
 7426  8837  8835 1
 7427  8838  8835 1
 7428  8839  8838 1
 7429  8841  8840 1
 7430  8842  8841 1
 7431  8843  8841 1
 7432  8844  8841 1
 7433  8845  8844 1
 7434  8847  8846 1
 7435  8848  8847 1
 7436  8849  8847 1
 7437  8850  8847 1
 7438  8851  8850 1
 7439  8853  8852 1
 7440  8854  8853 1
 7441  8855  8853 1
 7442  8856  8853 1
 7443  8857  8856 1
 7444  8859  8858 1
 7445  8860  8859 1
 7446  8861  8859 1
 7447  8862  8859 1
 7448  8863  8862 1
 7449  8865  8864 1
 7450  8866  8865 1
 7451  8867  8865 1
 7452  8868  8865 1
 7453  8869  8868 1
 7454  8871  8870 1
 7455  8872  8871 1
 7456  8873  8871 1
 7457  8874  8871 1
 7458  8875  8874 1
 7459  8877  8876 1
 7460  8878  8877 1
 7461  8879  8877 1
 7462  8880  8877 1
 7463  8881  8880 1
 7464  8883  8882 1
 7465  8884  8883 1
 7466  8885  8883 1
 7467  8886  8883 1
 7468  8887  8886 1
 7469  8889  8888 1
 7470  8890  8889 1
 7471  8891  8889 1
 7472  8892  8889 1
 7473  8893  8892 1
 7474  8895  8894 1
 7475  8896  8895 1
 7476  8897  8895 1
 7477  8898  8895 1
 7478  8899  8898 1
 7479  8901  8900 1
 7480  8902  8901 1
 7481  8903  8901 1
 7482  8904  8901 1
 7483  8905  8904 1
 7484  8907  8906 1
 7485  8908  8907 1
 7486  8909  8907 1
 7487  8910  8907 1
 7488  8911  8910 1
 7489  8913  8912 1
 7490  8914  8913 1
 7491  8915  8913 1
 7492  8916  8913 1
 7493  8917  8916 1
 7494  8919  8918 1
 7495  8920  8919 1
 7496  8921  8919 1
 7497  8922  8919 1
 7498  8923  8922 1
 7499  8925  8924 1
 7500  8926  8925 1
 7501  8927  8925 1
 7502  8928  8925 1
 7503  8929  8928 1
 7504  8931  8930 1
 7505  8932  8931 1
 7506  8933  8931 1
 7507  8934  8931 1
 7508  8935  8934 1
 7509  8937  8936 1
 7510  8938  8937 1
 7511  8939  8937 1
 7512  8940  8937 1
 7513  8941  8940 1
 7514  8943  8942 1
 7515  8944  8943 1
 7516  8945  8943 1
 7517  8946  8943 1
 7518  8947  8946 1
 7519  8949  8948 1
 7520  8950  8949 1
 7521  8951  8949 1
 7522  8952  8949 1
 7523  8953  8952 1
 7524  8955  8954 1
 7525  8956  8955 1
 7526  8957  8955 1
 7527  8958  8955 1
 7528  8959  8958 1
 7529  8961  8960 1
 7530  8962  8961 1
 7531  8963  8961 1
 7532  8964  8961 1
 7533  8965  8964 1
 7534  8967  8966 1
 7535  8968  8967 1
 7536  8969  8967 1
 7537  8970  8967 1
 7538  8971  8970 1
 7539  8973  8972 1
 7540  8974  8973 1
 7541  8975  8973 1
 7542  8976  8973 1
 7543  8977  8976 1
 7544  8979  8978 1
 7545  8980  8979 1
 7546  8981  8979 1
 7547  8982  8979 1
 7548  8983  8982 1
 7549  8985  8984 1
 7550  8986  8985 1
 7551  8987  8985 1
 7552  8988  8985 1
 7553  8989  8988 1
 7554  8991  8990 1
 7555  8992  8991 1
 7556  8993  8991 1
 7557  8994  8991 1
 7558  8995  8994 1
 7559  8997  8996 1
 7560  8998  8997 1
 7561  8999  8997 1
 7562  9000  8997 1
 7563  9001  9000 1
 7564  9003  9002 1
 7565  9004  9003 1
 7566  9005  9003 1
 7567  9006  9003 1
 7568  9007  9006 1
 7569  9009  9008 1
 7570  9010  9009 1
 7571  9011  9009 1
 7572  9012  9009 1
 7573  9013  9012 1
 7574  9015  9014 1
 7575  9016  9015 1
 7576  9017  9015 1
 7577  9018  9015 1
 7578  9019  9018 1
 7579  9021  9020 1
 7580  9022  9021 1
 7581  9023  9021 1
 7582  9024  9021 1
 7583  9025  9024 1
 7584  9027  9026 1
 7585  9028  9027 1
 7586  9029  9027 1
 7587  9030  9027 1
 7588  9031  9030 1
 7589  9033  9032 1
 7590  9034  9033 1
 7591  9035  9033 1
 7592  9036  9033 1
 7593  9037  9036 1
 7594  9039  9038 1
 7595  9040  9039 1
 7596  9041  9039 1
 7597  9042  9039 1
 7598  9043  9042 1
 7599  9045  9044 1
 7600  9046  9045 1
 7601  9047  9045 1
 7602  9048  9045 1
 7603  9049  9048 1
 7604  9051  9050 1
 7605  9052  9051 1
 7606  9053  9051 1
 7607  9054  9051 1
 7608  9055  9054 1
 7609  9057  9056 1
 7610  9058  9057 1
 7611  9059  9057 1
 7612  9060  9057 1
 7613  9061  9060 1
 7614  9063  9062 1
 7615  9064  9063 1
 7616  9065  9063 1
 7617  9066  9063 1
 7618  9067  9066 1
 7619  9069  9068 1
 7620  9070  9069 1
 7621  9071  9069 1
 7622  9072  9069 1
 7623  9073  9072 1
 7624  9075  9074 1
 7625  9076  9075 1
 7626  9077  9075 1
 7627  9078  9075 1
 7628  9079  9078 1
 7629  9081  9080 1
 7630  9082  9081 1
 7631  9083  9081 1
 7632  9084  9081 1
 7633  9085  9084 1
 7634  9087  9086 1
 7635  9088  9087 1
 7636  9089  9087 1
 7637  9090  9087 1
 7638  9091  9090 1
 7639  9093  9092 1
 7640  9094  9093 1
 7641  9095  9093 1
 7642  9096  9093 1
 7643  9097  9096 1
 7644  9099  9098 1
 7645  9100  9099 1
 7646  9101  9099 1
 7647  9102  9099 1
 7648  9103  9102 1
 7649  9105  9104 1
 7650  9106  9105 1
 7651  9107  9105 1
 7652  9108  9105 1
 7653  9109  9108 1
 7654  9111  9110 1
 7655  9112  9111 1
 7656  9113  9111 1
 7657  9114  9111 1
 7658  9115  9114 1
 7659  9117  9116 1
 7660  9118  9117 1
 7661  9119  9117 1
 7662  9120  9117 1
 7663  9121  9120 1
 7664  9123  9122 1
 7665  9124  9123 1
 7666  9125  9123 1
 7667  9126  9123 1
 7668  9127  9126 1
 7669  9129  9128 1
 7670  9130  9129 1
 7671  9131  9129 1
 7672  9132  9129 1
 7673  9133  9132 1
 7674  9135  9134 1
 7675  9136  9135 1
 7676  9137  9135 1
 7677  9138  9135 1
 7678  9139  9138 1
 7679  9141  9140 1
 7680  9142  9141 1
 7681  9143  9141 1
 7682  9144  9141 1
 7683  9145  9144 1
 7684  9147  9146 1
 7685  9148  9147 1
 7686  9149  9147 1
 7687  9150  9147 1
 7688  9151  9150 1
 7689  9153  9152 1
 7690  9154  9153 1
 7691  9155  9153 1
 7692  9156  9153 1
 7693  9157  9156 1
 7694  9159  9158 1
 7695  9160  9159 1
 7696  9161  9159 1
 7697  9162  9159 1
 7698  9163  9162 1
 7699  9165  9164 1
 7700  9166  9165 1
 7701  9167  9165 1
 7702  9168  9165 1
 7703  9169  9168 1
 7704  9171  9170 1
 7705  9172  9171 1
 7706  9173  9171 1
 7707  9174  9171 1
 7708  9175  9174 1
 7709  9177  9176 1
 7710  9178  9177 1
 7711  9179  9177 1
 7712  9180  9177 1
 7713  9181  9180 1
 7714  9183  9182 1
 7715  9184  9183 1
 7716  9185  9183 1
 7717  9186  9183 1
 7718  9187  9186 1
 7719  9189  9188 1
 7720  9190  9189 1
 7721  9191  9189 1
 7722  9192  9189 1
 7723  9193  9192 1
 7724  9195  9194 1
 7725  9196  9195 1
 7726  9197  9195 1
 7727  9198  9195 1
 7728  9199  9198 1
 7729  9201  9200 1
 7730  9202  9201 1
 7731  9203  9201 1
 7732  9204  9201 1
 7733  9205  9204 1
 7734  9207  9206 1
 7735  9208  9207 1
 7736  9209  9207 1
 7737  9210  9207 1
 7738  9211  9210 1
 7739  9213  9212 1
 7740  9214  9213 1
 7741  9215  9213 1
 7742  9216  9213 1
 7743  9217  9216 1
 7744  9219  9218 1
 7745  9220  9219 1
 7746  9221  9219 1
 7747  9222  9219 1
 7748  9223  9222 1
 7749  9225  9224 1
 7750  9226  9225 1
 7751  9227  9225 1
 7752  9228  9225 1
 7753  9229  9228 1
 7754  9231  9230 1
 7755  9232  9231 1
 7756  9233  9231 1
 7757  9234  9231 1
 7758  9235  9234 1
 7759  9237  9236 1
 7760  9238  9237 1
 7761  9239  9237 1
 7762  9240  9237 1
 7763  9241  9240 1
 7764  9243  9242 1
 7765  9244  9243 1
 7766  9245  9243 1
 7767  9246  9243 1
 7768  9247  9246 1
 7769  9249  9248 1
 7770  9250  9249 1
 7771  9251  9249 1
 7772  9252  9249 1
 7773  9253  9252 1
 7774  9255  9254 1
 7775  9256  9255 1
 7776  9257  9255 1
 7777  9258  9255 1
 7778  9259  9258 1
 7779  9261  9260 1
 7780  9262  9261 1
 7781  9263  9261 1
 7782  9264  9261 1
 7783  9265  9264 1
 7784  9267  9266 1
 7785  9268  9267 1
 7786  9269  9267 1
 7787  9270  9267 1
 7788  9271  9270 1
 7789  9273  9272 1
 7790  9274  9273 1
 7791  9275  9273 1
 7792  9276  9273 1
 7793  9277  9276 1
 7794  9279  9278 1
 7795  9280  9279 1
 7796  9281  9279 1
 7797  9282  9279 1
 7798  9283  9282 1
 7799  9285  9284 1
 7800  9286  9285 1
 7801  9287  9285 1
 7802  9288  9285 1
 7803  9289  9288 1
 7804  9291  9290 1
 7805  9292  9291 1
 7806  9293  9291 1
 7807  9294  9291 1
 7808  9295  9294 1
 7809  9297  9296 1
 7810  9298  9297 1
 7811  9299  9297 1
 7812  9300  9297 1
 7813  9301  9300 1
 7814  9303  9302 1
 7815  9304  9303 1
 7816  9305  9303 1
 7817  9306  9303 1
 7818  9307  9306 1
 7819  9309  9308 1
 7820  9310  9309 1
 7821  9311  9309 1
 7822  9312  9309 1
 7823  9313  9312 1
 7824  9315  9314 1
 7825  9316  9315 1
 7826  9317  9315 1
 7827  9318  9315 1
 7828  9319  9318 1
 7829  9321  9320 1
 7830  9322  9321 1
 7831  9323  9321 1
 7832  9324  9321 1
 7833  9325  9324 1
 7834  9327  9326 1
 7835  9328  9327 1
 7836  9329  9327 1
 7837  9330  9327 1
 7838  9331  9330 1
 7839  9333  9332 1
 7840  9334  9333 1
 7841  9335  9333 1
 7842  9336  9333 1
 7843  9337  9336 1
 7844  9339  9338 1
 7845  9340  9339 1
 7846  9341  9339 1
 7847  9342  9339 1
 7848  9343  9342 1
 7849  9345  9344 1
 7850  9346  9345 1
 7851  9347  9345 1
 7852  9348  9345 1
 7853  9349  9348 1
 7854  9351  9350 1
 7855  9352  9351 1
 7856  9353  9351 1
 7857  9354  9351 1
 7858  9355  9354 1
 7859  9357  9356 1
 7860  9358  9357 1
 7861  9359  9357 1
 7862  9360  9357 1
 7863  9361  9360 1
 7864  9363  9362 1
 7865  9364  9363 1
 7866  9365  9363 1
 7867  9366  9363 1
 7868  9367  9366 1
 7869  9369  9368 1
 7870  9370  9369 1
 7871  9371  9369 1
 7872  9372  9369 1
 7873  9373  9372 1
 7874  9375  9374 1
 7875  9376  9375 1
 7876  9377  9375 1
 7877  9378  9375 1
 7878  9379  9378 1
 7879  9381  9380 1
 7880  9382  9381 1
 7881  9383  9381 1
 7882  9384  9381 1
 7883  9385  9384 1
 7884  9387  9386 1
 7885  9388  9387 1
 7886  9389  9387 1
 7887  9390  9387 1
 7888  9391  9390 1
 7889  9393  9392 1
 7890  9394  9393 1
 7891  9395  9393 1
 7892  9396  9393 1
 7893  9397  9396 1
 7894  9399  9398 1
 7895  9400  9399 1
 7896  9401  9399 1
 7897  9402  9399 1
 7898  9403  9402 1
 7899  9405  9404 1
 7900  9406  9405 1
 7901  9407  9405 1
 7902  9408  9405 1
 7903  9409  9408 1
 7904  9411  9410 1
 7905  9412  9411 1
 7906  9413  9411 1
 7907  9414  9411 1
 7908  9415  9414 1
 7909  9417  9416 1
 7910  9418  9417 1
 7911  9419  9417 1
 7912  9420  9417 1
 7913  9421  9420 1
 7914  9423  9422 1
 7915  9424  9423 1
 7916  9425  9423 1
 7917  9426  9423 1
 7918  9427  9426 1
 7919  9429  9428 1
 7920  9430  9429 1
 7921  9431  9429 1
 7922  9432  9429 1
 7923  9433  9432 1
 7924  9435  9434 1
 7925  9436  9435 1
 7926  9437  9435 1
 7927  9438  9435 1
 7928  9439  9438 1
 7929  9441  9440 1
 7930  9442  9441 1
 7931  9443  9441 1
 7932  9444  9441 1
 7933  9445  9444 1
 7934  9447  9446 1
 7935  9448  9447 1
 7936  9449  9447 1
 7937  9450  9447 1
 7938  9451  9450 1
 7939  9453  9452 1
 7940  9454  9453 1
 7941  9455  9453 1
 7942  9456  9453 1
 7943  9457  9456 1
 7944  9459  9458 1
 7945  9460  9459 1
 7946  9461  9459 1
 7947  9462  9459 1
 7948  9463  9462 1
 7949  9465  9464 1
 7950  9466  9465 1
 7951  9467  9465 1
 7952  9468  9465 1
 7953  9469  9468 1
 7954  9471  9470 1
 7955  9472  9471 1
 7956  9473  9471 1
 7957  9474  9471 1
 7958  9475  9474 1
 7959  9477  9476 1
 7960  9478  9477 1
 7961  9479  9477 1
 7962  9480  9477 1
 7963  9481  9480 1
 7964  9483  9482 1
 7965  9484  9483 1
 7966  9485  9483 1
 7967  9486  9483 1
 7968  9487  9486 1
 7969  9489  9488 1
 7970  9490  9489 1
 7971  9491  9489 1
 7972  9492  9489 1
 7973  9493  9492 1
 7974  9495  9494 1
 7975  9496  9495 1
 7976  9497  9495 1
 7977  9498  9495 1
 7978  9499  9498 1
 7979  9501  9500 1
 7980  9502  9501 1
 7981  9503  9501 1
 7982  9504  9501 1
 7983  9505  9504 1
 7984  9507  9506 1
 7985  9508  9507 1
 7986  9509  9507 1
 7987  9510  9507 1
 7988  9511  9510 1
 7989  9513  9512 1
 7990  9514  9513 1
 7991  9515  9513 1
 7992  9516  9513 1
 7993  9517  9516 1
 7994  9519  9518 1
 7995  9520  9519 1
 7996  9521  9519 1
 7997  9522  9519 1
 7998  9523  9522 1
 7999  9525  9524 1
 8000  9526  9525 1
 8001  9527  9525 1
 8002  9528  9525 1
 8003  9529  9528 1
 8004  9531  9530 1
 8005  9532  9531 1
 8006  9533  9531 1
 8007  9534  9531 1
 8008  9535  9534 1
 8009  9537  9536 1
 8010  9538  9537 1
 8011  9539  9537 1
 8012  9540  9537 1
 8013  9541  9540 1
 8014  9543  9542 1
 8015  9544  9543 1
 8016  9545  9543 1
 8017  9546  9543 1
 8018  9547  9546 1
 8019  9549  9548 1
 8020  9550  9549 1
 8021  9551  9549 1
 8022  9552  9549 1
 8023  9553  9552 1
 8024  9555  9554 1
 8025  9556  9555 1
 8026  9557  9555 1
 8027  9558  9555 1
 8028  9559  9558 1
 8029  9561  9560 1
 8030  9562  9561 1
 8031  9563  9561 1
 8032  9564  9561 1
 8033  9565  9564 1
 8034  9567  9566 1
 8035  9568  9567 1
 8036  9569  9567 1
 8037  9570  9567 1
 8038  9571  9570 1
 8039  9573  9572 1
 8040  9574  9573 1
 8041  9575  9573 1
 8042  9576  9573 1
 8043  9577  9576 1
 8044  9579  9578 1
 8045  9580  9579 1
 8046  9581  9579 1
 8047  9582  9579 1
 8048  9583  9582 1
 8049  9585  9584 1
 8050  9586  9585 1
 8051  9587  9585 1
 8052  9588  9585 1
 8053  9589  9588 1
 8054  9591  9590 1
 8055  9592  9591 1
 8056  9593  9591 1
 8057  9594  9591 1
 8058  9595  9594 1
 8059  9597  9596 1
 8060  9598  9597 1
 8061  9599  9597 1
 8062  9600  9597 1
 8063  9601  9600 1
 8064  9603  9602 1
 8065  9604  9603 1
 8066  9605  9603 1
 8067  9606  9603 1
 8068  9607  9606 1
 8069  9609  9608 1
 8070  9610  9609 1
 8071  9611  9609 1
 8072  9612  9609 1
 8073  9613  9612 1
 8074  9615  9614 1
 8075  9616  9615 1
 8076  9617  9615 1
 8077  9618  9615 1
 8078  9619  9618 1
 8079  9621  9620 1
 8080  9622  9621 1
 8081  9623  9621 1
 8082  9624  9621 1
 8083  9625  9624 1
 8084  9627  9626 1
 8085  9628  9627 1
 8086  9629  9627 1
 8087  9630  9627 1
 8088  9631  9630 1
 8089  9633  9632 1
 8090  9634  9633 1
 8091  9635  9633 1
 8092  9636  9633 1
 8093  9637  9636 1
 8094  9639  9638 1
 8095  9640  9639 1
 8096  9641  9639 1
 8097  9642  9639 1
 8098  9643  9642 1
 8099  9645  9644 1
 8100  9646  9645 1
 8101  9647  9645 1
 8102  9648  9645 1
 8103  9649  9648 1
 8104  9651  9650 1
 8105  9652  9651 1
 8106  9653  9651 1
 8107  9654  9651 1
 8108  9655  9654 1
 8109  9657  9656 1
 8110  9658  9657 1
 8111  9659  9657 1
 8112  9660  9657 1
 8113  9661  9660 1
 8114  9663  9662 1
 8115  9664  9663 1
 8116  9665  9663 1
 8117  9666  9663 1
 8118  9667  9666 1
 8119  9669  9668 1
 8120  9670  9669 1
 8121  9671  9669 1
 8122  9672  9669 1
 8123  9673  9672 1
 8124  9675  9674 1
 8125  9676  9675 1
 8126  9677  9675 1
 8127  9678  9675 1
 8128  9679  9678 1
 8129  9681  9680 1
 8130  9682  9681 1
 8131  9683  9681 1
 8132  9684  9681 1
 8133  9685  9684 1
 8134  9687  9686 1
 8135  9688  9687 1
 8136  9689  9687 1
 8137  9690  9687 1
 8138  9691  9690 1
 8139  9693  9692 1
 8140  9694  9693 1
 8141  9695  9693 1
 8142  9696  9693 1
 8143  9697  9696 1
 8144  9699  9698 1
 8145  9700  9699 1
 8146  9701  9699 1
 8147  9702  9699 1
 8148  9703  9702 1
 8149  9705  9704 1
 8150  9706  9705 1
 8151  9707  9705 1
 8152  9708  9705 1
 8153  9709  9708 1
 8154  9711  9710 1
 8155  9712  9711 1
 8156  9713  9711 1
 8157  9714  9711 1
 8158  9715  9714 1
 8159  9717  9716 1
 8160  9718  9717 1
 8161  9719  9717 1
 8162  9720  9717 1
 8163  9721  9720 1
 8164  9723  9722 1
 8165  9724  9723 1
 8166  9725  9723 1
 8167  9726  9723 1
 8168  9727  9726 1
 8169  9729  9728 1
 8170  9730  9729 1
 8171  9731  9729 1
 8172  9732  9729 1
 8173  9733  9732 1
 8174  9735  9734 1
 8175  9736  9735 1
 8176  9737  9735 1
 8177  9738  9735 1
 8178  9739  9738 1
 8179  9741  9740 1
 8180  9742  9741 1
 8181  9743  9741 1
 8182  9744  9741 1
 8183  9745  9744 1
 8184  9747  9746 1
 8185  9748  9747 1
 8186  9749  9747 1
 8187  9750  9747 1
 8188  9751  9750 1
 8189  9753  9752 1
 8190  9754  9753 1
 8191  9755  9753 1
 8192  9756  9753 1
 8193  9757  9756 1
 8194  9759  9758 1
 8195  9760  9759 1
 8196  9761  9759 1
 8197  9762  9759 1
 8198  9763  9762 1
 8199  9765  9764 1
 8200  9766  9765 1
 8201  9767  9765 1
 8202  9768  9765 1
 8203  9769  9768 1
 8204  9771  9770 1
 8205  9772  9771 1
 8206  9773  9771 1
 8207  9774  9771 1
 8208  9775  9774 1
 8209  9777  9776 1
 8210  9778  9777 1
 8211  9779  9777 1
 8212  9780  9777 1
 8213  9781  9780 1
 8214  9783  9782 1
 8215  9784  9783 1
 8216  9785  9783 1
 8217  9786  9783 1
 8218  9787  9786 1
 8219  9789  9788 1
 8220  9790  9789 1
 8221  9791  9789 1
 8222  9792  9789 1
 8223  9793  9792 1
 8224  9795  9794 1
 8225  9796  9795 1
 8226  9797  9795 1
 8227  9798  9795 1
 8228  9799  9798 1
 8229  9801  9800 1
 8230  9802  9801 1
 8231  9803  9801 1
 8232  9804  9801 1
 8233  9805  9804 1
 8234  9807  9806 1
 8235  9808  9807 1
 8236  9809  9807 1
 8237  9810  9807 1
 8238  9811  9810 1
 8239  9813  9812 1
 8240  9814  9813 1
 8241  9815  9813 1
 8242  9816  9813 1
 8243  9817  9816 1
 8244  9819  9818 1
 8245  9820  9819 1
 8246  9821  9819 1
 8247  9822  9819 1
 8248  9823  9822 1
 8249  9825  9824 1
 8250  9826  9825 1
 8251  9827  9825 1
 8252  9828  9825 1
 8253  9829  9828 1
 8254  9831  9830 1
 8255  9832  9831 1
 8256  9833  9831 1
 8257  9834  9831 1
 8258  9835  9834 1
 8259  9837  9836 1
 8260  9838  9837 1
 8261  9839  9837 1
 8262  9840  9837 1
 8263  9841  9840 1
 8264  9843  9842 1
 8265  9844  9843 1
 8266  9845  9843 1
 8267  9846  9843 1
 8268  9847  9846 1
 8269  9849  9848 1
 8270  9850  9849 1
 8271  9851  9849 1
 8272  9852  9849 1
 8273  9853  9852 1
 8274  9855  9854 1
 8275  9856  9855 1
 8276  9857  9855 1
 8277  9858  9855 1
 8278  9859  9858 1
 8279  9861  9860 1
 8280  9862  9861 1
 8281  9863  9861 1
 8282  9864  9861 1
 8283  9865  9864 1
 8284  9867  9866 1
 8285  9868  9867 1
 8286  9869  9867 1
 8287  9870  9867 1
 8288  9871  9870 1
 8289  9873  9872 1
 8290  9874  9873 1
 8291  9875  9873 1
 8292  9876  9873 1
 8293  9877  9876 1
 8294  9879  9878 1
 8295  9880  9879 1
 8296  9881  9879 1
 8297  9882  9879 1
 8298  9883  9882 1
 8299  9885  9884 1
 8300  9886  9885 1
 8301  9887  9885 1
 8302  9888  9885 1
 8303  9889  9888 1
 8304  9891  9890 1
 8305  9892  9891 1
 8306  9893  9891 1
 8307  9894  9891 1
 8308  9895  9894 1
 8309  9897  9896 1
 8310  9898  9897 1
 8311  9899  9897 1
 8312  9900  9897 1
 8313  9901  9900 1
 8314  9903  9902 1
 8315  9904  9903 1
 8316  9905  9903 1
 8317  9906  9903 1
 8318  9907  9906 1
 8319  9909  9908 1
 8320  9910  9909 1
 8321  9911  9909 1
 8322  9912  9909 1
 8323  9913  9912 1
 8324  9915  9914 1
 8325  9916  9915 1
 8326  9917  9915 1
 8327  9918  9915 1
 8328  9919  9918 1
 8329  9921  9920 1
 8330  9922  9921 1
 8331  9923  9921 1
 8332  9924  9921 1
 8333  9925  9924 1
 8334  9927  9926 1
 8335  9928  9927 1
 8336  9929  9927 1
 8337  9930  9927 1
 8338  9931  9930 1
 8339  9933  9932 1
 8340  9934  9933 1
 8341  9935  9933 1
 8342  9936  9933 1
 8343  9937  9936 1
 8344  9939  9938 1
 8345  9940  9939 1
 8346  9941  9939 1
 8347  9942  9939 1
 8348  9943  9942 1
 8349  9945  9944 1
 8350  9946  9945 1
 8351  9947  9945 1
 8352  9948  9945 1
 8353  9949  9948 1
 8354  9951  9950 1
 8355  9952  9951 1
 8356  9953  9951 1
 8357  9954  9951 1
 8358  9955  9954 1
 8359  9957  9956 1
 8360  9958  9957 1
 8361  9959  9957 1
 8362  9960  9957 1
 8363  9961  9960 1
 8364  9963  9962 1
 8365  9964  9963 1
 8366  9965  9963 1
 8367  9966  9963 1
 8368  9967  9966 1
 8369  9969  9968 1
 8370  9970  9969 1
 8371  9971  9969 1
 8372  9972  9969 1
 8373  9973  9972 1
 8374  9975  9974 1
 8375  9976  9975 1
 8376  9977  9975 1
 8377  9978  9975 1
 8378  9979  9978 1
 8379  9981  9980 1
 8380  9982  9981 1
 8381  9983  9981 1
 8382  9984  9981 1
 8383  9985  9984 1
 8384  9987  9986 1
 8385  9988  9987 1
 8386  9989  9987 1
 8387  9990  9987 1
 8388  9991  9990 1
 8389  9993  9992 1
 8390  9994  9993 1
 8391  9995  9993 1
 8392  9996  9993 1
 8393  9997  9996 1
 8394  9999  9998 1
 8395 10000  9999 1
 8396 10001  9999 1
 8397 10002  9999 1
 8398 10003 10002 1
 8399 10005 10004 1
 8400 10006 10005 1
 8401 10007 10005 1
 8402 10008 10005 1
 8403 10009 10008 1
 8404 10011 10010 1
 8405 10012 10011 1
 8406 10013 10011 1
 8407 10014 10011 1
 8408 10015 10014 1
 8409 10017 10016 1
 8410 10018 10017 1
 8411 10019 10017 1
 8412 10020 10017 1
 8413 10021 10020 1
 8414 10023 10022 1
 8415 10024 10023 1
 8416 10025 10023 1
 8417 10026 10023 1
 8418 10027 10026 1
 8419 10029 10028 1
 8420 10030 10029 1
 8421 10031 10029 1
 8422 10032 10029 1
 8423 10033 10032 1
 8424 10035 10034 1
 8425 10036 10035 1
 8426 10037 10035 1
 8427 10038 10035 1
 8428 10039 10038 1
 8429 10041 10040 1
 8430 10042 10041 1
 8431 10043 10041 1
 8432 10044 10041 1
 8433 10045 10044 1
 8434 10047 10046 1
 8435 10048 10047 1
 8436 10049 10047 1
 8437 10050 10047 1
 8438 10051 10050 1
 8439 10053 10052 1
 8440 10054 10053 1
 8441 10055 10053 1
 8442 10056 10053 1
 8443 10057 10056 1
 8444 10059 10058 1
 8445 10060 10059 1
 8446 10061 10059 1
 8447 10062 10059 1
 8448 10063 10062 1
 8449 10065 10064 1
 8450 10066 10065 1
 8451 10067 10065 1
 8452 10068 10065 1
 8453 10069 10068 1
 8454 10071 10070 1
 8455 10072 10071 1
 8456 10073 10071 1
 8457 10074 10071 1
 8458 10075 10074 1
 8459 10077 10076 1
 8460 10078 10077 1
 8461 10079 10077 1
 8462 10080 10077 1
 8463 10081 10080 1
 8464 10083 10082 1
 8465 10084 10083 1
 8466 10085 10083 1
 8467 10086 10083 1
 8468 10087 10086 1
 8469 10089 10088 1
 8470 10090 10089 1
 8471 10091 10089 1
 8472 10092 10089 1
 8473 10093 10092 1
 8474 10095 10094 1
 8475 10096 10095 1
 8476 10097 10095 1
 8477 10098 10095 1
 8478 10099 10098 1
 8479 10101 10100 1
 8480 10102 10101 1
 8481 10103 10101 1
 8482 10104 10101 1
 8483 10105 10104 1
 8484 10107 10106 1
 8485 10108 10107 1
 8486 10109 10107 1
 8487 10110 10107 1
 8488 10111 10110 1
 8489 10113 10112 1
 8490 10114 10113 1
 8491 10115 10113 1
 8492 10116 10113 1
 8493 10117 10116 1
 8494 10119 10118 1
 8495 10120 10119 1
 8496 10121 10119 1
 8497 10122 10119 1
 8498 10123 10122 1
 8499 10125 10124 1
 8500 10126 10125 1
 8501 10127 10125 1
 8502 10128 10125 1
 8503 10129 10128 1
 8504 10131 10130 1
 8505 10132 10131 1
 8506 10133 10131 1
 8507 10134 10131 1
 8508 10135 10134 1
 8509 10137 10136 1
 8510 10138 10137 1
 8511 10139 10137 1
 8512 10140 10137 1
 8513 10141 10140 1
 8514 10143 10142 1
 8515 10144 10143 1
 8516 10145 10143 1
 8517 10146 10143 1
 8518 10147 10146 1
 8519 10149 10148 1
 8520 10150 10149 1
 8521 10151 10149 1
 8522 10152 10149 1
 8523 10153 10152 1
 8524 10155 10154 1
 8525 10156 10155 1
 8526 10157 10155 1
 8527 10158 10155 1
 8528 10159 10158 1
 8529 10161 10160 1
 8530 10162 10161 1
 8531 10163 10161 1
 8532 10164 10161 1
 8533 10165 10164 1
 8534 10167 10166 1
 8535 10168 10167 1
 8536 10169 10167 1
 8537 10170 10167 1
 8538 10171 10170 1
 8539 10173 10172 1
 8540 10174 10173 1
 8541 10175 10173 1
 8542 10176 10173 1
 8543 10177 10176 1
 8544 10179 10178 1
 8545 10180 10179 1
 8546 10181 10179 1
 8547 10182 10179 1
 8548 10183 10182 1
 8549 10185 10184 1
 8550 10186 10185 1
 8551 10187 10185 1
 8552 10188 10185 1
 8553 10189 10188 1
 8554 10191 10190 1
 8555 10192 10191 1
 8556 10193 10191 1
 8557 10194 10191 1
 8558 10195 10194 1
 8559 10197 10196 1
 8560 10198 10197 1
 8561 10199 10197 1
 8562 10200 10197 1
 8563 10201 10200 1
 8564 10203 10202 1
 8565 10204 10203 1
 8566 10205 10203 1
 8567 10206 10203 1
 8568 10207 10206 1
 8569 10209 10208 1
 8570 10210 10209 1
 8571 10211 10209 1
 8572 10212 10209 1
 8573 10213 10212 1
 8574 10215 10214 1
 8575 10216 10215 1
 8576 10217 10215 1
 8577 10218 10215 1
 8578 10219 10218 1
 8579 10221 10220 1
 8580 10222 10221 1
 8581 10223 10221 1
 8582 10224 10221 1
 8583 10225 10224 1
 8584 10227 10226 1
 8585 10228 10227 1
 8586 10229 10227 1
 8587 10230 10227 1
 8588 10231 10230 1
 8589 10233 10232 1
 8590 10234 10233 1
 8591 10235 10233 1
 8592 10236 10233 1
 8593 10237 10236 1
 8594 10239 10238 1
 8595 10240 10239 1
 8596 10241 10239 1
 8597 10242 10239 1
 8598 10243 10242 1
 8599 10245 10244 1
 8600 10246 10245 1
 8601 10247 10245 1
 8602 10248 10245 1
 8603 10249 10248 1
 8604 10251 10250 1
 8605 10252 10251 1
 8606 10253 10251 1
 8607 10254 10251 1
 8608 10255 10254 1
 8609 10257 10256 1
 8610 10258 10257 1
 8611 10259 10257 1
 8612 10260 10257 1
 8613 10261 10260 1
 8614 10263 10262 1
 8615 10264 10263 1
 8616 10265 10263 1
 8617 10266 10263 1
 8618 10267 10266 1
 8619 10269 10268 1
 8620 10270 10269 1
 8621 10271 10269 1
 8622 10272 10269 1
 8623 10273 10272 1
 8624 10275 10274 1
 8625 10276 10275 1
 8626 10277 10275 1
 8627 10278 10275 1
 8628 10279 10278 1
 8629 10281 10280 1
 8630 10282 10281 1
 8631 10283 10281 1
 8632 10284 10281 1
 8633 10285 10284 1
 8634 10287 10286 1
 8635 10288 10287 1
 8636 10289 10287 1
 8637 10290 10287 1
 8638 10291 10290 1
 8639 10293 10292 1
 8640 10294 10293 1
 8641 10295 10293 1
 8642 10296 10293 1
 8643 10297 10296 1
 8644 10299 10298 1
 8645 10300 10299 1
 8646 10301 10299 1
 8647 10302 10299 1
 8648 10303 10302 1
 8649 10305 10304 1
 8650 10306 10305 1
 8651 10307 10305 1
 8652 10308 10305 1
 8653 10309 10308 1
 8654 10311 10310 1
 8655 10312 10311 1
 8656 10313 10311 1
 8657 10314 10311 1
 8658 10315 10314 1
 8659 10317 10316 1
 8660 10318 10317 1
 8661 10319 10317 1
 8662 10320 10317 1
 8663 10321 10320 1
 8664 10323 10322 1
 8665 10324 10323 1
 8666 10325 10323 1
 8667 10326 10323 1
 8668 10327 10326 1
 8669 10329 10328 1
 8670 10330 10329 1
 8671 10331 10329 1
 8672 10332 10329 1
 8673 10333 10332 1
 8674 10335 10334 1
 8675 10336 10335 1
 8676 10337 10335 1
 8677 10338 10335 1
 8678 10339 10338 1
 8679 10341 10340 1
 8680 10342 10341 1
 8681 10343 10341 1
 8682 10344 10341 1
 8683 10345 10344 1
 8684 10347 10346 1
 8685 10348 10347 1
 8686 10349 10347 1
 8687 10350 10347 1
 8688 10351 10350 1
 8689 10353 10352 1
 8690 10354 10353 1
 8691 10355 10353 1
 8692 10356 10353 1
 8693 10357 10356 1
 8694 10359 10358 1
 8695 10360 10359 1
 8696 10361 10359 1
 8697 10362 10359 1
 8698 10363 10362 1
 8699 10365 10364 1
 8700 10366 10365 1
 8701 10367 10365 1
 8702 10368 10365 1
 8703 10369 10368 1
 8704 10371 10370 1
 8705 10372 10371 1
 8706 10373 10371 1
 8707 10374 10371 1
 8708 10375 10374 1
 8709 10377 10376 1
 8710 10378 10377 1
 8711 10379 10377 1
 8712 10380 10377 1
 8713 10381 10380 1
 8714 10383 10382 1
 8715 10384 10383 1
 8716 10385 10383 1
 8717 10386 10383 1
 8718 10387 10386 1
 8719 10389 10388 1
 8720 10390 10389 1
 8721 10391 10389 1
 8722 10392 10389 1
 8723 10393 10392 1
 8724 10395 10394 1
 8725 10396 10395 1
 8726 10397 10395 1
 8727 10398 10395 1
 8728 10399 10398 1
 8729 10401 10400 1
 8730 10402 10401 1
 8731 10403 10401 1
 8732 10404 10401 1
 8733 10405 10404 1
 8734 10407 10406 1
 8735 10408 10407 1
 8736 10409 10407 1
 8737 10410 10407 1
 8738 10411 10410 1
 8739 10413 10412 1
 8740 10414 10413 1
 8741 10415 10413 1
 8742 10416 10413 1
 8743 10417 10416 1
 8744 10419 10418 1
 8745 10420 10419 1
 8746 10421 10419 1
 8747 10422 10419 1
 8748 10423 10422 1
 8749 10425 10424 1
 8750 10426 10425 1
 8751 10427 10425 1
 8752 10428 10425 1
 8753 10429 10428 1
 8754 10431 10430 1
 8755 10432 10431 1
 8756 10433 10431 1
 8757 10434 10431 1
 8758 10435 10434 1
 8759 10437 10436 1
 8760 10438 10437 1
 8761 10439 10437 1
 8762 10440 10437 1
 8763 10441 10440 1
 8764 10443 10442 1
 8765 10444 10443 1
 8766 10445 10443 1
 8767 10446 10443 1
 8768 10447 10446 1
 8769 10449 10448 1
 8770 10450 10449 1
 8771 10451 10449 1
 8772 10452 10449 1
 8773 10453 10452 1
 8774 10455 10454 1
 8775 10456 10455 1
 8776 10457 10455 1
 8777 10458 10455 1
 8778 10459 10458 1
 8779 10461 10460 1
 8780 10462 10461 1
 8781 10463 10461 1
 8782 10464 10461 1
 8783 10465 10464 1
 8784 10467 10466 1
 8785 10468 10467 1
 8786 10469 10467 1
 8787 10470 10467 1
 8788 10471 10470 1
 8789 10473 10472 1
 8790 10474 10473 1
 8791 10475 10473 1
 8792 10476 10473 1
 8793 10477 10476 1
 8794 10479 10478 1
 8795 10480 10479 1
 8796 10481 10479 1
 8797 10482 10479 1
 8798 10483 10482 1
 8799 10485 10484 1
 8800 10486 10485 1
 8801 10487 10485 1
 8802 10488 10485 1
 8803 10489 10488 1
 8804 10491 10490 1
 8805 10492 10491 1
 8806 10493 10491 1
 8807 10494 10491 1
 8808 10495 10494 1
 8809 10497 10496 1
 8810 10498 10497 1
 8811 10499 10497 1
 8812 10500 10497 1
 8813 10501 10500 1
 8814 10503 10502 1
 8815 10504 10503 1
 8816 10505 10503 1
 8817 10506 10503 1
 8818 10507 10506 1
 8819 10509 10508 1
 8820 10510 10509 1
 8821 10511 10509 1
 8822 10512 10509 1
 8823 10513 10512 1
 8824 10515 10514 1
 8825 10516 10515 1
 8826 10517 10515 1
 8827 10518 10515 1
 8828 10519 10518 1
 8829 10521 10520 1
 8830 10522 10521 1
 8831 10523 10521 1
 8832 10524 10521 1
 8833 10525 10524 1
 8834 10527 10526 1
 8835 10528 10527 1
 8836 10529 10527 1
 8837 10530 10527 1
 8838 10531 10530 1
 8839 10533 10532 1
 8840 10534 10533 1
 8841 10535 10533 1
 8842 10536 10533 1
 8843 10537 10536 1
 8844 10539 10538 1
 8845 10540 10539 1
 8846 10541 10539 1
 8847 10542 10539 1
 8848 10543 10542 1
 8849 10545 10544 1
 8850 10546 10545 1
 8851 10547 10545 1
 8852 10548 10545 1
 8853 10549 10548 1
 8854 10551 10550 1
 8855 10552 10551 1
 8856 10553 10551 1
 8857 10554 10551 1
 8858 10555 10554 1
 8859 10557 10556 1
 8860 10558 10557 1
 8861 10559 10557 1
 8862 10560 10557 1
 8863 10561 10560 1
 8864 10563 10562 1
 8865 10564 10563 1
 8866 10565 10563 1
 8867 10566 10563 1
 8868 10567 10566 1
 8869 10569 10568 1
 8870 10570 10569 1
 8871 10571 10569 1
 8872 10572 10569 1
 8873 10573 10572 1
 8874 10575 10574 1
 8875 10576 10575 1
 8876 10577 10575 1
 8877 10578 10575 1
 8878 10579 10578 1
 8879 10581 10580 1
 8880 10582 10581 1
 8881 10583 10581 1
 8882 10584 10581 1
 8883 10585 10584 1
 8884 10587 10586 1
 8885 10588 10587 1
 8886 10589 10587 1
 8887 10590 10587 1
 8888 10591 10590 1
 8889 10593 10592 1
 8890 10594 10593 1
 8891 10595 10593 1
 8892 10596 10593 1
 8893 10597 10596 1
 8894 10599 10598 1
 8895 10600 10599 1
 8896 10601 10599 1
 8897 10602 10599 1
 8898 10603 10602 1
 8899 10605 10604 1
 8900 10606 10605 1
 8901 10607 10605 1
 8902 10608 10605 1
 8903 10609 10608 1
 8904 10611 10610 1
 8905 10612 10611 1
 8906 10613 10611 1
 8907 10614 10611 1
 8908 10615 10614 1
 8909 10617 10616 1
 8910 10618 10617 1
 8911 10619 10617 1
 8912 10620 10617 1
 8913 10621 10620 1
 8914 10623 10622 1
 8915 10624 10623 1
 8916 10625 10623 1
 8917 10626 10623 1
 8918 10627 10626 1
 8919 10629 10628 1
 8920 10630 10629 1
 8921 10631 10629 1
 8922 10632 10629 1
 8923 10633 10632 1
 8924 10635 10634 1
 8925 10636 10635 1
 8926 10637 10635 1
 8927 10638 10635 1
 8928 10639 10638 1
 8929 10641 10640 1
 8930 10642 10641 1
 8931 10643 10641 1
 8932 10644 10641 1
 8933 10645 10644 1
 8934 10647 10646 1
 8935 10648 10647 1
 8936 10649 10647 1
 8937 10650 10647 1
 8938 10651 10650 1
 8939 10653 10652 1
 8940 10654 10653 1
 8941 10655 10653 1
 8942 10656 10653 1
 8943 10657 10656 1
 8944 10659 10658 1
 8945 10660 10659 1
 8946 10661 10659 1
 8947 10662 10659 1
 8948 10663 10662 1
 8949 10665 10664 1
 8950 10666 10665 1
 8951 10667 10665 1
 8952 10668 10665 1
 8953 10669 10668 1
 8954 10671 10670 1
 8955 10672 10671 1
 8956 10673 10671 1
 8957 10674 10671 1
 8958 10675 10674 1
 8959 10677 10676 1
 8960 10678 10677 1
 8961 10679 10677 1
 8962 10680 10677 1
 8963 10681 10680 1
 8964 10683 10682 1
 8965 10684 10683 1
 8966 10685 10683 1
 8967 10686 10683 1
 8968 10687 10686 1
 8969 10689 10688 1
 8970 10690 10689 1
 8971 10691 10689 1
 8972 10692 10689 1
 8973 10693 10692 1
 8974 10695 10694 1
 8975 10696 10695 1
 8976 10697 10695 1
 8977 10698 10695 1
 8978 10699 10698 1
 8979 10701 10700 1
 8980 10702 10701 1
 8981 10703 10701 1
 8982 10704 10701 1
 8983 10705 10704 1
 8984 10707 10706 1
 8985 10708 10707 1
 8986 10709 10707 1
 8987 10710 10707 1
 8988 10711 10710 1
 8989 10713 10712 1
 8990 10714 10713 1
 8991 10715 10713 1
 8992 10716 10713 1
 8993 10717 10716 1
 8994 10719 10718 1
 8995 10720 10719 1
 8996 10721 10719 1
 8997 10722 10719 1
 8998 10723 10722 1
 8999 10725 10724 1
 9000 10726 10725 1
 9001 10727 10725 1
 9002 10728 10725 1
 9003 10729 10728 1
 9004 10731 10730 1
 9005 10732 10731 1
 9006 10733 10731 1
 9007 10734 10731 1
 9008 10735 10734 1
 9009 10737 10736 1
 9010 10738 10737 1
 9011 10739 10737 1
 9012 10740 10737 1
 9013 10741 10740 1
 9014 10743 10742 1
 9015 10744 10743 1
 9016 10745 10743 1
 9017 10746 10743 1
 9018 10747 10746 1
 9019 10749 10748 1
 9020 10750 10749 1
 9021 10751 10749 1
 9022 10752 10749 1
 9023 10753 10752 1
 9024 10755 10754 1
 9025 10756 10755 1
 9026 10757 10755 1
 9027 10758 10755 1
 9028 10759 10758 1
 9029 10761 10760 1
 9030 10762 10761 1
 9031 10763 10761 1
 9032 10764 10761 1
 9033 10765 10764 1
 9034 10767 10766 1
 9035 10768 10767 1
 9036 10769 10767 1
 9037 10770 10767 1
 9038 10771 10770 1
 9039 10773 10772 1
 9040 10774 10773 1
 9041 10775 10773 1
 9042 10776 10773 1
 9043 10777 10776 1
 9044 10779 10778 1
 9045 10780 10779 1
 9046 10781 10779 1
 9047 10782 10779 1
 9048 10783 10782 1
 9049 10785 10784 1
 9050 10786 10785 1
 9051 10787 10785 1
 9052 10788 10785 1
 9053 10789 10788 1
 9054 10791 10790 1
 9055 10792 10791 1
 9056 10793 10791 1
 9057 10794 10791 1
 9058 10795 10794 1
 9059 10797 10796 1
 9060 10798 10797 1
 9061 10799 10797 1
 9062 10800 10797 1
 9063 10801 10800 1
 9064 10803 10802 1
 9065 10804 10803 1
 9066 10805 10803 1
 9067 10806 10803 1
 9068 10807 10806 1
 9069 10809 10808 1
 9070 10810 10809 1
 9071 10811 10809 1
 9072 10812 10809 1
 9073 10813 10812 1
 9074 10815 10814 1
 9075 10816 10815 1
 9076 10817 10815 1
 9077 10818 10815 1
 9078 10819 10818 1
 9079 10821 10820 1
 9080 10822 10821 1
 9081 10823 10821 1
 9082 10824 10821 1
 9083 10825 10824 1
 9084 10827 10826 1
 9085 10828 10827 1
 9086 10829 10827 1
 9087 10830 10827 1
 9088 10831 10830 1
 9089 10833 10832 1
 9090 10834 10833 1
 9091 10835 10833 1
 9092 10836 10833 1
 9093 10837 10836 1
 9094 10839 10838 1
 9095 10840 10839 1
 9096 10841 10839 1
 9097 10842 10839 1
 9098 10843 10842 1
 9099 10845 10844 1
 9100 10846 10845 1
 9101 10847 10845 1
 9102 10848 10845 1
 9103 10849 10848 1
 9104 10851 10850 1
 9105 10852 10851 1
 9106 10853 10851 1
 9107 10854 10851 1
 9108 10855 10854 1
 9109 10857 10856 1
 9110 10858 10857 1
 9111 10859 10857 1
 9112 10860 10857 1
 9113 10861 10860 1
 9114 10863 10862 1
 9115 10864 10863 1
 9116 10865 10863 1
 9117 10866 10863 1
 9118 10867 10866 1
 9119 10869 10868 1
 9120 10870 10869 1
 9121 10871 10869 1
 9122 10872 10869 1
 9123 10873 10872 1
 9124 10875 10874 1
 9125 10876 10875 1
 9126 10877 10875 1
 9127 10878 10875 1
 9128 10879 10878 1
 9129 10881 10880 1
 9130 10882 10881 1
 9131 10883 10881 1
 9132 10884 10881 1
 9133 10885 10884 1
 9134 10887 10886 1
 9135 10888 10887 1
 9136 10889 10887 1
 9137 10890 10887 1
 9138 10891 10890 1
 9139 10893 10892 1
 9140 10894 10893 1
 9141 10895 10893 1
 9142 10896 10893 1
 9143 10897 10896 1
 9144 10899 10898 1
 9145 10900 10899 1
 9146 10901 10899 1
 9147 10902 10899 1
 9148 10903 10902 1
 9149 10905 10904 1
 9150 10906 10905 1
 9151 10907 10905 1
 9152 10908 10905 1
 9153 10909 10908 1
 9154 10911 10910 1
 9155 10912 10911 1
 9156 10913 10911 1
 9157 10914 10911 1
 9158 10915 10914 1
 9159 10917 10916 1
 9160 10918 10917 1
 9161 10919 10917 1
 9162 10920 10917 1
 9163 10921 10920 1
 9164 10923 10922 1
 9165 10924 10923 1
 9166 10925 10923 1
 9167 10926 10923 1
 9168 10927 10926 1
 9169 10929 10928 1
 9170 10930 10929 1
 9171 10931 10929 1
 9172 10932 10929 1
 9173 10933 10932 1
 9174 10935 10934 1
 9175 10936 10935 1
 9176 10937 10935 1
 9177 10938 10935 1
 9178 10939 10938 1
 9179 10941 10940 1
 9180 10942 10941 1
 9181 10943 10941 1
 9182 10944 10941 1
 9183 10945 10944 1
 9184 10947 10946 1
 9185 10948 10947 1
 9186 10949 10947 1
 9187 10950 10947 1
 9188 10951 10950 1
 9189 10953 10952 1
 9190 10954 10953 1
 9191 10955 10953 1
 9192 10956 10953 1
 9193 10957 10956 1
 9194 10959 10958 1
 9195 10960 10959 1
 9196 10961 10959 1
 9197 10962 10959 1
 9198 10963 10962 1
 9199 10965 10964 1
 9200 10966 10965 1
 9201 10967 10965 1
 9202 10968 10965 1
 9203 10969 10968 1
 9204 10971 10970 1
 9205 10972 10971 1
 9206 10973 10971 1
 9207 10974 10971 1
 9208 10975 10974 1
 9209 10977 10976 1
 9210 10978 10977 1
 9211 10979 10977 1
 9212 10980 10977 1
 9213 10981 10980 1
 9214 10983 10982 1
 9215 10984 10983 1
 9216 10985 10983 1
 9217 10986 10983 1
 9218 10987 10986 1
 9219 10989 10988 1
 9220 10990 10989 1
 9221 10991 10989 1
 9222 10992 10989 1
 9223 10993 10992 1
 9224 10995 10994 1
 9225 10996 10995 1
 9226 10997 10995 1
 9227 10998 10995 1
 9228 10999 10998 1
 9229 11001 11000 1
 9230 11002 11001 1
 9231 11003 11001 1
 9232 11004 11001 1
 9233 11005 11004 1
 9234 11007 11006 1
 9235 11008 11007 1
 9236 11009 11007 1
 9237 11010 11007 1
 9238 11011 11010 1
 9239 11013 11012 1
 9240 11014 11013 1
 9241 11015 11013 1
 9242 11016 11013 1
 9243 11017 11016 1
 9244 11019 11018 1
 9245 11020 11019 1
 9246 11021 11019 1
 9247 11022 11019 1
 9248 11023 11022 1
 9249 11025 11024 1
 9250 11026 11025 1
 9251 11027 11025 1
 9252 11028 11025 1
 9253 11029 11028 1
 9254 11031 11030 1
 9255 11032 11031 1
 9256 11033 11031 1
 9257 11034 11031 1
 9258 11035 11034 1
 9259 11037 11036 1
 9260 11038 11037 1
 9261 11039 11037 1
 9262 11040 11037 1
 9263 11041 11040 1
 9264 11043 11042 1
 9265 11044 11043 1
 9266 11045 11043 1
 9267 11046 11043 1
 9268 11047 11046 1
 9269 11049 11048 1
 9270 11050 11049 1
 9271 11051 11049 1
 9272 11052 11049 1
 9273 11053 11052 1
 9274 11055 11054 1
 9275 11056 11055 1
 9276 11057 11055 1
 9277 11058 11055 1
 9278 11059 11058 1
 9279 11061 11060 1
 9280 11062 11061 1
 9281 11063 11061 1
 9282 11064 11061 1
 9283 11065 11064 1
 9284 11067 11066 1
 9285 11068 11067 1
 9286 11069 11067 1
 9287 11070 11067 1
 9288 11071 11070 1
 9289 11073 11072 1
 9290 11074 11073 1
 9291 11075 11073 1
 9292 11076 11073 1
 9293 11077 11076 1
 9294 11079 11078 1
 9295 11080 11079 1
 9296 11081 11079 1
 9297 11082 11079 1
 9298 11083 11082 1
 9299 11085 11084 1
 9300 11086 11085 1
 9301 11087 11085 1
 9302 11088 11085 1
 9303 11089 11088 1
 9304 11091 11090 1
 9305 11092 11091 1
 9306 11093 11091 1
 9307 11094 11091 1
 9308 11095 11094 1
 9309 11097 11096 1
 9310 11098 11097 1
 9311 11099 11097 1
 9312 11100 11097 1
 9313 11101 11100 1
 9314 11103 11102 1
 9315 11104 11103 1
 9316 11105 11103 1
 9317 11106 11103 1
 9318 11107 11106 1
 9319 11109 11108 1
 9320 11110 11109 1
 9321 11111 11109 1
 9322 11112 11109 1
 9323 11113 11112 1
 9324 11115 11114 1
 9325 11116 11115 1
 9326 11117 11115 1
 9327 11118 11115 1
 9328 11119 11118 1
 9329 11121 11120 1
 9330 11122 11121 1
 9331 11123 11121 1
 9332 11124 11121 1
 9333 11125 11124 1
 9334 11127 11126 1
 9335 11128 11127 1
 9336 11129 11127 1
 9337 11130 11127 1
 9338 11131 11130 1
 9339 11133 11132 1
 9340 11134 11133 1
 9341 11135 11133 1
 9342 11136 11133 1
 9343 11137 11136 1
 9344 11139 11138 1
 9345 11140 11139 1
 9346 11141 11139 1
 9347 11142 11139 1
 9348 11143 11142 1
 9349 11145 11144 1
 9350 11146 11145 1
 9351 11147 11145 1
 9352 11148 11145 1
 9353 11149 11148 1
 9354 11151 11150 1
 9355 11152 11151 1
 9356 11153 11151 1
 9357 11154 11151 1
 9358 11155 11154 1
 9359 11157 11156 1
 9360 11158 11157 1
 9361 11159 11157 1
 9362 11160 11157 1
 9363 11161 11160 1
 9364 11163 11162 1
 9365 11164 11163 1
 9366 11165 11163 1
 9367 11166 11163 1
 9368 11167 11166 1
 9369 11169 11168 1
 9370 11170 11169 1
 9371 11171 11169 1
 9372 11172 11169 1
 9373 11173 11172 1
 9374 11175 11174 1
 9375 11176 11175 1
 9376 11177 11175 1
 9377 11178 11175 1
 9378 11179 11178 1
 9379 11181 11180 1
 9380 11182 11181 1
 9381 11183 11181 1
 9382 11184 11181 1
 9383 11185 11184 1
 9384 11187 11186 1
 9385 11188 11187 1
 9386 11189 11187 1
 9387 11190 11187 1
 9388 11191 11190 1
 9389 11193 11192 1
 9390 11194 11193 1
 9391 11195 11193 1
 9392 11196 11193 1
 9393 11197 11196 1
 9394 11199 11198 1
 9395 11200 11199 1
 9396 11201 11199 1
 9397 11202 11199 1
 9398 11203 11202 1
 9399 11205 11204 1
 9400 11206 11205 1
 9401 11207 11205 1
 9402 11208 11205 1
 9403 11209 11208 1
 9404 11211 11210 1
 9405 11212 11211 1
 9406 11213 11211 1
 9407 11214 11211 1
 9408 11215 11214 1
 9409 11217 11216 1
 9410 11218 11217 1
 9411 11219 11217 1
 9412 11220 11217 1
 9413 11221 11220 1
 9414 11223 11222 1
 9415 11224 11223 1
 9416 11225 11223 1
 9417 11226 11223 1
 9418 11227 11226 1
 9419 11229 11228 1
 9420 11230 11229 1
 9421 11231 11229 1
 9422 11232 11229 1
 9423 11233 11232 1
 9424 11235 11234 1
 9425 11236 11235 1
 9426 11237 11235 1
 9427 11238 11235 1
 9428 11239 11238 1
 9429 11241 11240 1
 9430 11242 11241 1
 9431 11243 11241 1
 9432 11244 11241 1
 9433 11245 11244 1
 9434 11247 11246 1
 9435 11248 11247 1
 9436 11249 11247 1
 9437 11250 11247 1
 9438 11251 11250 1
 9439 11253 11252 1
 9440 11254 11253 1
 9441 11255 11253 1
 9442 11256 11253 1
 9443 11257 11256 1
 9444 11259 11258 1
 9445 11260 11259 1
 9446 11261 11259 1
 9447 11262 11259 1
 9448 11263 11262 1
 9449 11265 11264 1
 9450 11266 11265 1
 9451 11267 11265 1
 9452 11268 11265 1
 9453 11269 11268 1
 9454 11271 11270 1
 9455 11272 11271 1
 9456 11273 11271 1
 9457 11274 11271 1
 9458 11275 11274 1
 9459 11277 11276 1
 9460 11278 11277 1
 9461 11279 11277 1
 9462 11280 11277 1
 9463 11281 11280 1
 9464 11283 11282 1
 9465 11284 11283 1
 9466 11285 11283 1
 9467 11286 11283 1
 9468 11287 11286 1
 9469 11289 11288 1
 9470 11290 11289 1
 9471 11291 11289 1
 9472 11292 11289 1
 9473 11293 11292 1
 9474 11295 11294 1
 9475 11296 11295 1
 9476 11297 11295 1
 9477 11298 11295 1
 9478 11299 11298 1
 9479 11301 11300 1
 9480 11302 11301 1
 9481 11303 11301 1
 9482 11304 11301 1
 9483 11305 11304 1
 9484 11307 11306 1
 9485 11308 11307 1
 9486 11309 11307 1
 9487 11310 11307 1
 9488 11311 11310 1
 9489 11313 11312 1
 9490 11314 11313 1
 9491 11315 11313 1
 9492 11316 11313 1
 9493 11317 11316 1
 9494 11319 11318 1
 9495 11320 11319 1
 9496 11321 11319 1
 9497 11322 11319 1
 9498 11323 11322 1
 9499 11325 11324 1
 9500 11326 11325 1
 9501 11327 11325 1
 9502 11328 11325 1
 9503 11329 11328 1
 9504 11331 11330 1
 9505 11332 11331 1
 9506 11333 11331 1
 9507 11334 11331 1
 9508 11335 11334 1
 9509 11337 11336 1
 9510 11338 11337 1
 9511 11339 11337 1
 9512 11340 11337 1
 9513 11341 11340 1
 9514 11343 11342 1
 9515 11344 11343 1
 9516 11345 11343 1
 9517 11346 11343 1
 9518 11347 11346 1
 9519 11349 11348 1
 9520 11350 11349 1
 9521 11351 11349 1
 9522 11352 11349 1
 9523 11353 11352 1
 9524 11355 11354 1
 9525 11356 11355 1
 9526 11357 11355 1
 9527 11358 11355 1
 9528 11359 11358 1
 9529 11361 11360 1
 9530 11362 11361 1
 9531 11363 11361 1
 9532 11364 11361 1
 9533 11365 11364 1
 9534 11367 11366 1
 9535 11368 11367 1
 9536 11369 11367 1
 9537 11370 11367 1
 9538 11371 11370 1
 9539 11373 11372 1
 9540 11374 11373 1
 9541 11375 11373 1
 9542 11376 11373 1
 9543 11377 11376 1
 9544 11379 11378 1
 9545 11380 11379 1
 9546 11381 11379 1
 9547 11382 11379 1
 9548 11383 11382 1
 9549 11385 11384 1
 9550 11386 11385 1
 9551 11387 11385 1
 9552 11388 11385 1
 9553 11389 11388 1
 9554 11391 11390 1
 9555 11392 11391 1
 9556 11393 11391 1
 9557 11394 11391 1
 9558 11395 11394 1
 9559 11397 11396 1
 9560 11398 11397 1
 9561 11399 11397 1
 9562 11400 11397 1
 9563 11401 11400 1
 9564 11403 11402 1
 9565 11404 11403 1
 9566 11405 11403 1
 9567 11406 11403 1
 9568 11407 11406 1
 9569 11409 11408 1
 9570 11410 11409 1
 9571 11411 11409 1
 9572 11412 11409 1
 9573 11413 11412 1
 9574 11415 11414 1
 9575 11416 11415 1
 9576 11417 11415 1
 9577 11418 11415 1
 9578 11419 11418 1
 9579 11421 11420 1
 9580 11422 11421 1
 9581 11423 11421 1
 9582 11424 11421 1
 9583 11425 11424 1
 9584 11427 11426 1
 9585 11428 11427 1
 9586 11429 11427 1
 9587 11430 11427 1
 9588 11431 11430 1
 9589 11433 11432 1
 9590 11434 11433 1
 9591 11435 11433 1
 9592 11436 11433 1
 9593 11437 11436 1
 9594 11439 11438 1
 9595 11440 11439 1
 9596 11441 11439 1
 9597 11442 11439 1
 9598 11443 11442 1
 9599 11445 11444 1
 9600 11446 11445 1
 9601 11447 11445 1
 9602 11448 11445 1
 9603 11449 11448 1
 9604 11451 11450 1
 9605 11452 11451 1
 9606 11453 11451 1
 9607 11454 11451 1
 9608 11455 11454 1
 9609 11457 11456 1
 9610 11458 11457 1
 9611 11459 11457 1
 9612 11460 11457 1
 9613 11461 11460 1
 9614 11463 11462 1
 9615 11464 11463 1
 9616 11465 11463 1
 9617 11466 11463 1
 9618 11467 11466 1
 9619 11469 11468 1
 9620 11470 11469 1
 9621 11471 11469 1
 9622 11472 11469 1
 9623 11473 11472 1
 9624 11475 11474 1
 9625 11476 11475 1
 9626 11477 11475 1
 9627 11478 11475 1
 9628 11479 11478 1
 9629 11481 11480 1
 9630 11482 11481 1
 9631 11483 11481 1
 9632 11484 11481 1
 9633 11485 11484 1
 9634 11487 11486 1
 9635 11488 11487 1
 9636 11489 11487 1
 9637 11490 11487 1
 9638 11491 11490 1
 9639 11493 11492 1
 9640 11494 11493 1
 9641 11495 11493 1
 9642 11496 11493 1
 9643 11497 11496 1
 9644 11499 11498 1
 9645 11500 11499 1
 9646 11501 11499 1
 9647 11502 11499 1
 9648 11503 11502 1
 9649 11505 11504 1
 9650 11506 11505 1
 9651 11507 11505 1
 9652 11508 11505 1
 9653 11509 11508 1
 9654 11511 11510 1
 9655 11512 11511 1
 9656 11513 11511 1
 9657 11514 11511 1
 9658 11515 11514 1
 9659 11517 11516 1
 9660 11518 11517 1
 9661 11519 11517 1
 9662 11520 11517 1
 9663 11521 11520 1
 9664 11523 11522 1
 9665 11524 11523 1
 9666 11525 11523 1
 9667 11526 11523 1
 9668 11527 11526 1
 9669 11529 11528 1
 9670 11530 11529 1
 9671 11531 11529 1
 9672 11532 11529 1
 9673 11533 11532 1
 9674 11535 11534 1
 9675 11536 11535 1
 9676 11537 11535 1
 9677 11538 11535 1
 9678 11539 11538 1
 9679 11541 11540 1
 9680 11542 11541 1
 9681 11543 11541 1
 9682 11544 11541 1
 9683 11545 11544 1
 9684 11547 11546 1
 9685 11548 11547 1
 9686 11549 11547 1
 9687 11550 11547 1
 9688 11551 11550 1
 9689 11553 11552 1
 9690 11554 11553 1
 9691 11555 11553 1
 9692 11556 11553 1
 9693 11557 11556 1
 9694 11559 11558 1
 9695 11560 11559 1
 9696 11561 11559 1
 9697 11562 11559 1
 9698 11563 11562 1
 9699 11565 11564 1
 9700 11566 11565 1
 9701 11567 11565 1
 9702 11568 11565 1
 9703 11569 11568 1
 9704 11571 11570 1
 9705 11572 11571 1
 9706 11573 11571 1
 9707 11574 11571 1
 9708 11575 11574 1
 9709 11577 11576 1
 9710 11578 11577 1
 9711 11579 11577 1
 9712 11580 11577 1
 9713 11581 11580 1
 9714 11583 11582 1
 9715 11584 11583 1
 9716 11585 11583 1
 9717 11586 11583 1
 9718 11587 11586 1
 9719 11589 11588 1
 9720 11590 11589 1
 9721 11591 11589 1
 9722 11592 11589 1
 9723 11593 11592 1
 9724 11595 11594 1
 9725 11596 11595 1
 9726 11597 11595 1
 9727 11598 11595 1
 9728 11599 11598 1
 9729 11601 11600 1
 9730 11602 11601 1
 9731 11603 11601 1
 9732 11604 11601 1
 9733 11605 11604 1
 9734 11607 11606 1
 9735 11608 11607 1
 9736 11609 11607 1
 9737 11610 11607 1
 9738 11611 11610 1
 9739 11613 11612 1
 9740 11614 11613 1
 9741 11615 11613 1
 9742 11616 11613 1
 9743 11617 11616 1
 9744 11619 11618 1
 9745 11620 11619 1
 9746 11621 11619 1
 9747 11622 11619 1
 9748 11623 11622 1
 9749 11625 11624 1
 9750 11626 11625 1
 9751 11627 11625 1
 9752 11628 11625 1
 9753 11629 11628 1
 9754 11631 11630 1
 9755 11632 11631 1
 9756 11633 11631 1
 9757 11634 11631 1
 9758 11635 11634 1
 9759 11637 11636 1
 9760 11638 11637 1
 9761 11639 11637 1
 9762 11640 11637 1
 9763 11641 11640 1
 9764 11643 11642 1
 9765 11644 11643 1
 9766 11645 11643 1
 9767 11646 11643 1
 9768 11647 11646 1
 9769 11649 11648 1
 9770 11650 11649 1
 9771 11651 11649 1
 9772 11652 11649 1
 9773 11653 11652 1
 9774 11655 11654 1
 9775 11656 11655 1
 9776 11657 11655 1
 9777 11658 11655 1
 9778 11659 11658 1
 9779 11661 11660 1
 9780 11662 11661 1
 9781 11663 11661 1
 9782 11664 11661 1
 9783 11665 11664 1
 9784 11667 11666 1
 9785 11668 11667 1
 9786 11669 11667 1
 9787 11670 11667 1
 9788 11671 11670 1
 9789 11673 11672 1
 9790 11674 11673 1
 9791 11675 11673 1
 9792 11676 11673 1
 9793 11677 11676 1
 9794 11679 11678 1
 9795 11680 11679 1
 9796 11681 11679 1
 9797 11682 11679 1
 9798 11683 11682 1
 9799 11685 11684 1
 9800 11686 11685 1
 9801 11687 11685 1
 9802 11688 11685 1
 9803 11689 11688 1
 9804 11691 11690 1
 9805 11692 11691 1
 9806 11693 11691 1
 9807 11694 11691 1
 9808 11695 11694 1
 9809 11697 11696 1
 9810 11698 11697 1
 9811 11699 11697 1
 9812 11700 11697 1
 9813 11701 11700 1
 9814 11703 11702 1
 9815 11704 11703 1
 9816 11705 11703 1
 9817 11706 11703 1
 9818 11707 11706 1
 9819 11709 11708 1
 9820 11710 11709 1
 9821 11711 11709 1
 9822 11712 11709 1
 9823 11713 11712 1
 9824 11715 11714 1
 9825 11716 11715 1
 9826 11717 11715 1
 9827 11718 11715 1
 9828 11719 11718 1
 9829 11721 11720 1
 9830 11722 11721 1
 9831 11723 11721 1
 9832 11724 11721 1
 9833 11725 11724 1
 9834 11727 11726 1
 9835 11728 11727 1
 9836 11729 11727 1
 9837 11730 11727 1
 9838 11731 11730 1
 9839 11733 11732 1
 9840 11734 11733 1
 9841 11735 11733 1
 9842 11736 11733 1
 9843 11737 11736 1
 9844 11739 11738 1
 9845 11740 11739 1
 9846 11741 11739 1
 9847 11742 11739 1
 9848 11743 11742 1
 9849 11745 11744 1
 9850 11746 11745 1
 9851 11747 11745 1
 9852 11748 11745 1
 9853 11749 11748 1
 9854 11751 11750 1
 9855 11752 11751 1
 9856 11753 11751 1
 9857 11754 11751 1
 9858 11755 11754 1
 9859 11757 11756 1
 9860 11758 11757 1
 9861 11759 11757 1
 9862 11760 11757 1
 9863 11761 11760 1
 9864 11763 11762 1
 9865 11764 11763 1
 9866 11765 11763 1
 9867 11766 11763 1
 9868 11767 11766 1
 9869 11769 11768 1
 9870 11770 11769 1
 9871 11771 11769 1
 9872 11772 11769 1
 9873 11773 11772 1
 9874 11775 11774 1
 9875 11776 11775 1
 9876 11777 11775 1
 9877 11778 11775 1
 9878 11779 11778 1
 9879 11781 11780 1
 9880 11782 11781 1
 9881 11783 11781 1
 9882 11784 11781 1
 9883 11785 11784 1
 9884 11787 11786 1
 9885 11788 11787 1
 9886 11789 11787 1
 9887 11790 11787 1
 9888 11791 11790 1
 9889 11793 11792 1
 9890 11794 11793 1
 9891 11795 11793 1
 9892 11796 11793 1
 9893 11797 11796 1
 9894 11799 11798 1
 9895 11800 11799 1
 9896 11801 11799 1
 9897 11802 11799 1
 9898 11803 11802 1
 9899 11805 11804 1
 9900 11806 11805 1
 9901 11807 11805 1
 9902 11808 11805 1
 9903 11809 11808 1
 9904 11811 11810 1
 9905 11812 11811 1
 9906 11813 11811 1
 9907 11814 11811 1
 9908 11815 11814 1
 9909 11817 11816 1
 9910 11818 11817 1
 9911 11819 11817 1
 9912 11820 11817 1
 9913 11821 11820 1
 9914 11823 11822 1
 9915 11824 11823 1
 9916 11825 11823 1
 9917 11826 11823 1
 9918 11827 11826 1
 9919 11829 11828 1
 9920 11830 11829 1
 9921 11831 11829 1
 9922 11832 11829 1
 9923 11833 11832 1
 9924 11835 11834 1
 9925 11836 11835 1
 9926 11837 11835 1
 9927 11838 11835 1
 9928 11839 11838 1
 9929 11841 11840 1
 9930 11842 11841 1
 9931 11843 11841 1
 9932 11844 11841 1
 9933 11845 11844 1
 9934 11847 11846 1
 9935 11848 11847 1
 9936 11849 11847 1
 9937 11850 11847 1
 9938 11851 11850 1
 9939 11853 11852 1
 9940 11854 11853 1
 9941 11855 11853 1
 9942 11856 11853 1
 9943 11857 11856 1
 9944 11859 11858 1
 9945 11860 11859 1
 9946 11861 11859 1
 9947 11862 11859 1
 9948 11863 11862 1
 9949 11865 11864 1
 9950 11866 11865 1
 9951 11867 11865 1
 9952 11868 11865 1
 9953 11869 11868 1
 9954 11871 11870 1
 9955 11872 11871 1
 9956 11873 11871 1
 9957 11874 11871 1
 9958 11875 11874 1
 9959 11877 11876 1
 9960 11878 11877 1
 9961 11879 11877 1
 9962 11880 11877 1
 9963 11881 11880 1
 9964 11883 11882 1
 9965 11884 11883 1
 9966 11885 11883 1
 9967 11886 11883 1
 9968 11887 11886 1
 9969 11889 11888 1
 9970 11890 11889 1
 9971 11891 11889 1
 9972 11892 11889 1
 9973 11893 11892 1
 9974 11895 11894 1
 9975 11896 11895 1
 9976 11897 11895 1
 9977 11898 11895 1
 9978 11899 11898 1
 9979 11901 11900 1
 9980 11902 11901 1
 9981 11903 11901 1
 9982 11904 11901 1
 9983 11905 11904 1
 9984 11907 11906 1
 9985 11908 11907 1
 9986 11909 11907 1
 9987 11910 11907 1
 9988 11911 11910 1
 9989 11913 11912 1
 9990 11914 11913 1
 9991 11915 11913 1
 9992 11916 11913 1
 9993 11917 11916 1
 9994 11919 11918 1
 9995 11920 11919 1
 9996 11921 11919 1
 9997 11922 11919 1
 9998 11923 11922 1
 9999 11925 11924 1
10000 11926 11925 1
10001 11927 11925 1
10002 11928 11925 1
10003 11929 11928 1
10004 11931 11930 1
10005 11932 11931 1
10006 11933 11931 1
10007 11934 11931 1
10008 11935 11934 1
10009 11937 11936 1
10010 11938 11937 1
10011 11939 11937 1
10012 11940 11937 1
10013 11941 11940 1
10014 11943 11942 1
10015 11944 11943 1
10016 11945 11943 1
10017 11946 11943 1
10018 11947 11946 1
10019 11949 11948 1
10020 11950 11949 1
10021 11951 11949 1
10022 11952 11949 1
10023 11953 11952 1
10024 11955 11954 1
10025 11956 11955 1
10026 11957 11955 1
10027 11958 11955 1
10028 11959 11958 1
10029 11961 11960 1
10030 11962 11961 1
10031 11963 11961 1
10032 11964 11961 1
10033 11965 11964 1
10034 11967 11966 1
10035 11968 11967 1
10036 11969 11967 1
10037 11970 11967 1
10038 11971 11970 1
10039 11973 11972 1
10040 11974 11973 1
10041 11975 11973 1
10042 11976 11973 1
10043 11977 11976 1
10044 11979 11978 1
10045 11980 11979 1
10046 11981 11979 1
10047 11982 11979 1
10048 11983 11982 1
10049 11985 11984 1
10050 11986 11985 1
10051 11987 11985 1
10052 11988 11985 1
10053 11989 11988 1
10054 11991 11990 1
10055 11992 11991 1
10056 11993 11991 1
10057 11994 11991 1
10058 11995 11994 1
10059 11997 11996 1
10060 11998 11997 1
10061 11999 11997 1
10062 12000 11997 1
10063 12001 12000 1
10064 12003 12002 1
10065 12004 12003 1
10066 12005 12003 1
10067 12006 12003 1
10068 12007 12006 1
10069 12009 12008 1
10070 12010 12009 1
10071 12011 12009 1
10072 12012 12009 1
10073 12013 12012 1
10074 12015 12014 1
10075 12016 12015 1
10076 12017 12015 1
10077 12018 12015 1
10078 12019 12018 1
10079 12021 12020 1
10080 12022 12021 1
10081 12023 12021 1
10082 12024 12021 1
10083 12025 12024 1
10084 12027 12026 1
10085 12028 12027 1
10086 12029 12027 1
10087 12030 12027 1
10088 12031 12030 1
10089 12033 12032 1
10090 12034 12033 1
10091 12035 12033 1
10092 12036 12033 1
10093 12037 12036 1
10094 12039 12038 1
10095 12040 12039 1
10096 12041 12039 1
10097 12042 12039 1
10098 12043 12042 1
10099 12045 12044 1
10100 12046 12045 1
10101 12047 12045 1
10102 12048 12045 1
10103 12049 12048 1
10104 12051 12050 1
10105 12052 12051 1
10106 12053 12051 1
10107 12054 12051 1
10108 12055 12054 1
10109 12057 12056 1
10110 12058 12057 1
10111 12059 12057 1
10112 12060 12057 1
10113 12061 12060 1
10114 12063 12062 1
10115 12064 12063 1
10116 12065 12063 1
10117 12066 12063 1
10118 12067 12066 1
10119 12069 12068 1
10120 12070 12069 1
10121 12071 12069 1
10122 12072 12069 1
10123 12073 12072 1
10124 12075 12074 1
10125 12076 12075 1
10126 12077 12075 1
10127 12078 12075 1
10128 12079 12078 1
10129 12081 12080 1
10130 12082 12081 1
10131 12083 12081 1
10132 12084 12081 1
10133 12085 12084 1
10134 12087 12086 1
10135 12088 12087 1
10136 12089 12087 1
10137 12090 12087 1
10138 12091 12090 1
10139 12093 12092 1
10140 12094 12093 1
10141 12095 12093 1
10142 12096 12093 1
10143 12097 12096 1
10144 12099 12098 1
10145 12100 12099 1
10146 12101 12099 1
10147 12102 12099 1
10148 12103 12102 1
10149 12105 12104 1
10150 12106 12105 1
10151 12107 12105 1
10152 12108 12105 1
10153 12109 12108 1
10154 12111 12110 1
10155 12112 12111 1
10156 12113 12111 1
10157 12114 12111 1
10158 12115 12114 1
10159 12117 12116 1
10160 12118 12117 1
10161 12119 12117 1
10162 12120 12117 1
10163 12121 12120 1
10164 12123 12122 1
10165 12124 12123 1
10166 12125 12123 1
10167 12126 12123 1
10168 12127 12126 1
10169 12129 12128 1
10170 12130 12129 1
10171 12131 12129 1
10172 12132 12129 1
10173 12133 12132 1
10174 12135 12134 1
10175 12136 12135 1
10176 12137 12135 1
10177 12138 12135 1
10178 12139 12138 1
10179 12141 12140 1
10180 12142 12141 1
10181 12143 12141 1
10182 12144 12141 1
10183 12145 12144 1
10184 12147 12146 1
10185 12148 12147 1
10186 12149 12147 1
10187 12150 12147 1
10188 12151 12150 1
10189 12153 12152 1
10190 12154 12153 1
10191 12155 12153 1
10192 12156 12153 1
10193 12157 12156 1
10194 12159 12158 1
10195 12160 12159 1
10196 12161 12159 1
10197 12162 12159 1
10198 12163 12162 1
10199 12165 12164 1
10200 12166 12165 1
10201 12167 12165 1
10202 12168 12165 1
10203 12169 12168 1
10204 12171 12170 1
10205 12172 12171 1
10206 12173 12171 1
10207 12174 12171 1
10208 12175 12174 1
10209 12177 12176 1
10210 12178 12177 1
10211 12179 12177 1
10212 12180 12177 1
10213 12181 12180 1
10214 12183 12182 1
10215 12184 12183 1
10216 12185 12183 1
10217 12186 12183 1
10218 12187 12186 1
10219 12189 12188 1
10220 12190 12189 1
10221 12191 12189 1
10222 12192 12189 1
10223 12193 12192 1
10224 12195 12194 1
10225 12196 12195 1
10226 12197 12195 1
10227 12198 12195 1
10228 12199 12198 1
10229 12201 12200 1
10230 12202 12201 1
10231 12203 12201 1
10232 12204 12201 1
10233 12205 12204 1
10234 12207 12206 1
10235 12208 12207 1
10236 12209 12207 1
10237 12210 12207 1
10238 12211 12210 1
10239 12213 12212 1
10240 12214 12213 1
10241 12215 12213 1
10242 12216 12213 1
10243 12217 12216 1
10244 12219 12218 1
10245 12220 12219 1
10246 12221 12219 1
10247 12222 12219 1
10248 12223 12222 1
10249 12225 12224 1
10250 12226 12225 1
10251 12227 12225 1
10252 12228 12225 1
10253 12229 12228 1
10254 12231 12230 1
10255 12232 12231 1
10256 12233 12231 1
10257 12234 12231 1
10258 12235 12234 1
10259 12237 12236 1
10260 12238 12237 1
10261 12239 12237 1
10262 12240 12237 1
10263 12241 12240 1
10264 12243 12242 1
10265 12244 12243 1
10266 12245 12243 1
10267 12246 12243 1
10268 12247 12246 1
10269 12249 12248 1
10270 12250 12249 1
10271 12251 12249 1
10272 12252 12249 1
10273 12253 12252 1
10274 12255 12254 1
10275 12256 12255 1
10276 12257 12255 1
10277 12258 12255 1
10278 12259 12258 1
10279 12261 12260 1
10280 12262 12261 1
10281 12263 12261 1
10282 12264 12261 1
10283 12265 12264 1
10284 12267 12266 1
10285 12268 12267 1
10286 12269 12267 1
10287 12270 12267 1
10288 12271 12270 1
10289 12273 12272 1
10290 12274 12273 1
10291 12275 12273 1
10292 12276 12273 1
10293 12277 12276 1
10294 12279 12278 1
10295 12280 12279 1
10296 12281 12279 1
10297 12282 12279 1
10298 12283 12282 1
10299 12285 12284 1
10300 12286 12285 1
10301 12287 12285 1
10302 12288 12285 1
10303 12289 12288 1
10304 12291 12290 1
10305 12292 12291 1
10306 12293 12291 1
10307 12294 12291 1
10308 12295 12294 1
10309 12297 12296 1
10310 12298 12297 1
10311 12299 12297 1
10312 12300 12297 1
10313 12301 12300 1
10314 12303 12302 1
10315 12304 12303 1
10316 12305 12303 1
10317 12306 12303 1
10318 12307 12306 1
10319 12309 12308 1
10320 12310 12309 1
10321 12311 12309 1
10322 12312 12309 1
10323 12313 12312 1
10324 12315 12314 1
10325 12316 12315 1
10326 12317 12315 1
10327 12318 12315 1
10328 12319 12318 1
10329 12321 12320 1
10330 12322 12321 1
10331 12323 12321 1
10332 12324 12321 1
10333 12325 12324 1
10334 12327 12326 1
10335 12328 12327 1
10336 12329 12327 1
10337 12330 12327 1
10338 12331 12330 1
10339 12333 12332 1
10340 12334 12333 1
10341 12335 12333 1
10342 12336 12333 1
10343 12337 12336 1
10344 12339 12338 1
10345 12340 12339 1
10346 12341 12339 1
10347 12342 12339 1
10348 12343 12342 1
10349 12345 12344 1
10350 12346 12345 1
10351 12347 12345 1
10352 12348 12345 1
10353 12349 12348 1
10354 12351 12350 1
10355 12352 12351 1
10356 12353 12351 1
10357 12354 12351 1
10358 12355 12354 1
10359 12357 12356 1
10360 12358 12357 1
10361 12359 12357 1
10362 12360 12357 1
10363 12361 12360 1
10364 12363 12362 1
10365 12364 12363 1
10366 12365 12363 1
10367 12366 12363 1
10368 12367 12366 1
10369 12369 12368 1
10370 12370 12369 1
10371 12371 12369 1
10372 12372 12369 1
10373 12373 12372 1
10374 12375 12374 1
10375 12376 12375 1
10376 12377 12375 1
10377 12378 12375 1
10378 12379 12378 1
10379 12381 12380 1
10380 12382 12381 1
10381 12383 12381 1
10382 12384 12381 1
10383 12385 12384 1
10384 12387 12386 1
10385 12388 12387 1
10386 12389 12387 1
10387 12390 12387 1
10388 12391 12390 1
10389 12393 12392 1
10390 12394 12393 1
10391 12395 12393 1
10392 12396 12393 1
10393 12397 12396 1
10394 12399 12398 1
10395 12400 12399 1
10396 12401 12399 1
10397 12402 12399 1
10398 12403 12402 1
10399 12405 12404 1
10400 12406 12405 1
10401 12407 12405 1
10402 12408 12405 1
10403 12409 12408 1
10404 12411 12410 1
10405 12412 12411 1
10406 12413 12411 1
10407 12414 12411 1
10408 12415 12414 1
10409 12417 12416 1
10410 12418 12417 1
10411 12419 12417 1
10412 12420 12417 1
10413 12421 12420 1
10414 12423 12422 1
10415 12424 12423 1
10416 12425 12423 1
10417 12426 12423 1
10418 12427 12426 1
10419 12429 12428 1
10420 12430 12429 1
10421 12431 12429 1
10422 12432 12429 1
10423 12433 12432 1
10424 12435 12434 1
10425 12436 12435 1
10426 12437 12435 1
10427 12438 12435 1
10428 12439 12438 1
10429 12441 12440 1
10430 12442 12441 1
10431 12443 12441 1
10432 12444 12441 1
10433 12445 12444 1
10434 12447 12446 1
10435 12448 12447 1
10436 12449 12447 1
10437 12450 12447 1
10438 12451 12450 1
10439 12453 12452 1
10440 12454 12453 1
10441 12455 12453 1
10442 12456 12453 1
10443 12457 12456 1
10444 12459 12458 1
10445 12460 12459 1
10446 12461 12459 1
10447 12462 12459 1
10448 12463 12462 1
10449 12465 12464 1
10450 12466 12465 1
10451 12467 12465 1
10452 12468 12465 1
10453 12469 12468 1
10454 12471 12470 1
10455 12472 12471 1
10456 12473 12471 1
10457 12474 12471 1
10458 12475 12474 1
10459 12477 12476 1
10460 12478 12477 1
10461 12479 12477 1
10462 12480 12477 1
10463 12481 12480 1
10464 12483 12482 1
10465 12484 12483 1
10466 12485 12483 1
10467 12486 12483 1
10468 12487 12486 1
10469 12489 12488 1
10470 12490 12489 1
10471 12491 12489 1
10472 12492 12489 1
10473 12493 12492 1
10474 12495 12494 1
10475 12496 12495 1
10476 12497 12495 1
10477 12498 12495 1
10478 12499 12498 1
10479 12501 12500 1
10480 12502 12501 1
10481 12503 12501 1
10482 12504 12501 1
10483 12505 12504 1
10484 12507 12506 1
10485 12508 12507 1
10486 12509 12507 1
10487 12510 12507 1
10488 12511 12510 1
10489 12513 12512 1
10490 12514 12513 1
10491 12515 12513 1
10492 12516 12513 1
10493 12517 12516 1
10494 12519 12518 1
10495 12520 12519 1
10496 12521 12519 1
10497 12522 12519 1
10498 12523 12522 1
10499 12525 12524 1
10500 12526 12525 1
10501 12527 12525 1
10502 12528 12525 1
10503 12529 12528 1
10504 12531 12530 1
10505 12532 12531 1
10506 12533 12531 1
10507 12534 12531 1
10508 12535 12534 1
10509 12537 12536 1
10510 12538 12537 1
10511 12539 12537 1
10512 12540 12537 1
10513 12541 12540 1
10514 12543 12542 1
10515 12544 12543 1
10516 12545 12543 1
10517 12546 12543 1
10518 12547 12546 1
10519 12549 12548 1
10520 12550 12549 1
10521 12551 12549 1
10522 12552 12549 1
10523 12553 12552 1
10524 12555 12554 1
10525 12556 12555 1
10526 12557 12555 1
10527 12558 12555 1
10528 12559 12558 1
10529 12561 12560 1
10530 12562 12561 1
10531 12563 12561 1
10532 12564 12561 1
10533 12565 12564 1
10534 12567 12566 1
10535 12568 12567 1
10536 12569 12567 1
10537 12570 12567 1
10538 12571 12570 1
10539 12573 12572 1
10540 12574 12573 1
10541 12575 12573 1
10542 12576 12573 1
10543 12577 12576 1
10544 12579 12578 1
10545 12580 12579 1
10546 12581 12579 1
10547 12582 12579 1
10548 12583 12582 1
10549 12585 12584 1
10550 12586 12585 1
10551 12587 12585 1
10552 12588 12585 1
10553 12589 12588 1
10554 12591 12590 1
10555 12592 12591 1
10556 12593 12591 1
10557 12594 12591 1
10558 12595 12594 1
10559 12597 12596 1
10560 12598 12597 1
10561 12599 12597 1
10562 12600 12597 1
10563 12601 12600 1
10564 12603 12602 1
10565 12604 12603 1
10566 12605 12603 1
10567 12606 12603 1
10568 12607 12606 1
10569 12609 12608 1
10570 12610 12609 1
10571 12611 12609 1
10572 12612 12609 1
10573 12613 12612 1
10574 12615 12614 1
10575 12616 12615 1
10576 12617 12615 1
10577 12618 12615 1
10578 12619 12618 1
10579 12621 12620 1
10580 12622 12621 1
10581 12623 12621 1
10582 12624 12621 1
10583 12625 12624 1
10584 12627 12626 1
10585 12628 12627 1
10586 12629 12627 1
10587 12630 12627 1
10588 12631 12630 1
10589 12633 12632 1
10590 12634 12633 1
10591 12635 12633 1
10592 12636 12633 1
10593 12637 12636 1
10594 12639 12638 1
10595 12640 12639 1
10596 12641 12639 1
10597 12642 12639 1
10598 12643 12642 1
10599 12645 12644 1
10600 12646 12645 1
10601 12647 12645 1
10602 12648 12645 1
10603 12649 12648 1
10604 12651 12650 1
10605 12652 12651 1
10606 12653 12651 1
10607 12654 12651 1
10608 12655 12654 1
10609 12657 12656 1
10610 12658 12657 1
10611 12659 12657 1
10612 12660 12657 1
10613 12661 12660 1
10614 12663 12662 1
10615 12664 12663 1
10616 12665 12663 1
10617 12666 12663 1
10618 12667 12666 1
10619 12669 12668 1
10620 12670 12669 1
10621 12671 12669 1
10622 12672 12669 1
10623 12673 12672 1
10624 12675 12674 1
10625 12676 12675 1
10626 12677 12675 1
10627 12678 12675 1
10628 12679 12678 1
10629 12681 12680 1
10630 12682 12681 1
10631 12683 12681 1
10632 12684 12681 1
10633 12685 12684 1
10634 12687 12686 1
10635 12688 12687 1
10636 12689 12687 1
10637 12690 12687 1
10638 12691 12690 1
10639 12693 12692 1
10640 12694 12693 1
10641 12695 12693 1
10642 12696 12693 1
10643 12697 12696 1
10644 12699 12698 1
10645 12700 12699 1
10646 12701 12699 1
10647 12702 12699 1
10648 12703 12702 1
10649 12705 12704 1
10650 12706 12705 1
10651 12707 12705 1
10652 12708 12705 1
10653 12709 12708 1
10654 12711 12710 1
10655 12712 12711 1
10656 12713 12711 1
10657 12714 12711 1
10658 12715 12714 1
10659 12717 12716 1
10660 12718 12717 1
10661 12719 12717 1
10662 12720 12717 1
10663 12721 12720 1
10664 12723 12722 1
10665 12724 12723 1
10666 12725 12723 1
10667 12726 12723 1
10668 12727 12726 1
10669 12729 12728 1
10670 12730 12729 1
10671 12731 12729 1
10672 12732 12729 1
10673 12733 12732 1
10674 12735 12734 1
10675 12736 12735 1
10676 12737 12735 1
10677 12738 12735 1
10678 12739 12738 1
10679 12741 12740 1
10680 12742 12741 1
10681 12743 12741 1
10682 12744 12741 1
10683 12745 12744 1
10684 12747 12746 1
10685 12748 12747 1
10686 12749 12747 1
10687 12750 12747 1
10688 12751 12750 1
10689 12753 12752 1
10690 12754 12753 1
10691 12755 12753 1
10692 12756 12753 1
10693 12757 12756 1
10694 12759 12758 1
10695 12760 12759 1
10696 12761 12759 1
10697 12762 12759 1
10698 12763 12762 1
10699 12765 12764 1
10700 12766 12765 1
10701 12767 12765 1
10702 12768 12765 1
10703 12769 12768 1
10704 12771 12770 1
10705 12772 12771 1
10706 12773 12771 1
10707 12774 12771 1
10708 12775 12774 1
10709 12777 12776 1
10710 12778 12777 1
10711 12779 12777 1
10712 12780 12777 1
10713 12781 12780 1
10714 12783 12782 1
10715 12784 12783 1
10716 12785 12783 1
10717 12786 12783 1
10718 12787 12786 1
10719 12789 12788 1
10720 12790 12789 1
10721 12791 12789 1
10722 12792 12789 1
10723 12793 12792 1
10724 12795 12794 1
10725 12796 12795 1
10726 12797 12795 1
10727 12798 12795 1
10728 12799 12798 1
10729 12801 12800 1
10730 12802 12801 1
10731 12803 12801 1
10732 12804 12801 1
10733 12805 12804 1
10734 12807 12806 1
10735 12808 12807 1
10736 12809 12807 1
10737 12810 12807 1
10738 12811 12810 1
10739 12813 12812 1
10740 12814 12813 1
10741 12815 12813 1
10742 12816 12813 1
10743 12817 12816 1
10744 12819 12818 1
10745 12820 12819 1
10746 12821 12819 1
10747 12822 12819 1
10748 12823 12822 1
10749 12825 12824 1
10750 12826 12825 1
10751 12827 12825 1
10752 12828 12825 1
10753 12829 12828 1
10754 12831 12830 1
10755 12832 12831 1
10756 12833 12831 1
10757 12834 12831 1
10758 12835 12834 1
10759 12837 12836 1
10760 12838 12837 1
10761 12839 12837 1
10762 12840 12837 1
10763 12841 12840 1
10764 12843 12842 1
10765 12844 12843 1
10766 12845 12843 1
10767 12846 12843 1
10768 12847 12846 1
10769 12849 12848 1
10770 12850 12849 1
10771 12851 12849 1
10772 12852 12849 1
10773 12853 12852 1
10774 12855 12854 1
10775 12856 12855 1
10776 12857 12855 1
10777 12858 12855 1
10778 12859 12858 1
10779 12861 12860 1
10780 12862 12861 1
10781 12863 12861 1
10782 12864 12861 1
10783 12865 12864 1
10784 12867 12866 1
10785 12868 12867 1
10786 12869 12867 1
10787 12870 12867 1
10788 12871 12870 1
10789 12873 12872 1
10790 12874 12873 1
10791 12875 12873 1
10792 12876 12873 1
10793 12877 12876 1
10794 12879 12878 1
10795 12880 12879 1
10796 12881 12879 1
10797 12882 12879 1
10798 12883 12882 1
10799 12885 12884 1
10800 12886 12885 1
10801 12887 12885 1
10802 12888 12885 1
10803 12889 12888 1
10804 12891 12890 1
10805 12892 12891 1
10806 12893 12891 1
10807 12894 12891 1
10808 12895 12894 1
10809 12897 12896 1
10810 12898 12897 1
10811 12899 12897 1
10812 12900 12897 1
10813 12901 12900 1
10814 12903 12902 1
10815 12904 12903 1
10816 12905 12903 1
10817 12906 12903 1
10818 12907 12906 1
10819 12909 12908 1
10820 12910 12909 1
10821 12911 12909 1
10822 12912 12909 1
10823 12913 12912 1
10824 12915 12914 1
10825 12916 12915 1
10826 12917 12915 1
10827 12918 12915 1
10828 12919 12918 1
10829 12921 12920 1
10830 12922 12921 1
10831 12923 12921 1
10832 12924 12921 1
10833 12925 12924 1
10834 12927 12926 1
10835 12928 12927 1
10836 12929 12927 1
10837 12930 12927 1
10838 12931 12930 1
10839 12933 12932 1
10840 12934 12933 1
10841 12935 12933 1
10842 12936 12933 1
10843 12937 12936 1
10844 12939 12938 1
10845 12940 12939 1
10846 12941 12939 1
10847 12942 12939 1
10848 12943 12942 1
10849 12945 12944 1
10850 12946 12945 1
10851 12947 12945 1
10852 12948 12945 1
10853 12949 12948 1
10854 12951 12950 1
10855 12952 12951 1
10856 12953 12951 1
10857 12954 12951 1
10858 12955 12954 1
10859 12957 12956 1
10860 12958 12957 1
10861 12959 12957 1
10862 12960 12957 1
10863 12961 12960 1
10864 12963 12962 1
10865 12964 12963 1
10866 12965 12963 1
10867 12966 12963 1
10868 12967 12966 1
10869 12969 12968 1
10870 12970 12969 1
10871 12971 12969 1
10872 12972 12969 1
10873 12973 12972 1
10874 12975 12974 1
10875 12976 12975 1
10876 12977 12975 1
10877 12978 12975 1
10878 12979 12978 1
10879 12981 12980 1
10880 12982 12981 1
10881 12983 12981 1
10882 12984 12981 1
10883 12985 12984 1
10884 12987 12986 1
10885 12988 12987 1
10886 12989 12987 1
10887 12990 12987 1
10888 12991 12990 1
10889 12993 12992 1
10890 12994 12993 1
10891 12995 12993 1
10892 12996 12993 1
10893 12997 12996 1
10894 12999 12998 1
10895 13000 12999 1
10896 13001 12999 1
10897 13002 12999 1
10898 13003 13002 1
10899 13005 13004 1
10900 13006 13005 1
10901 13007 13005 1
10902 13008 13005 1
10903 13009 13008 1
10904 13011 13010 1
10905 13012 13011 1
10906 13013 13011 1
10907 13014 13011 1
10908 13015 13014 1
10909 13017 13016 1
10910 13018 13017 1
10911 13019 13017 1
10912 13020 13017 1
10913 13021 13020 1
10914 13023 13022 1
10915 13024 13023 1
10916 13025 13023 1
10917 13026 13023 1
10918 13027 13026 1
10919 13029 13028 1
10920 13030 13029 1
10921 13031 13029 1
10922 13032 13029 1
10923 13033 13032 1
10924 13035 13034 1
10925 13036 13035 1
10926 13037 13035 1
10927 13038 13035 1
10928 13039 13038 1
10929 13041 13040 1
10930 13042 13041 1
10931 13043 13041 1
10932 13044 13041 1
10933 13045 13044 1
10934 13047 13046 1
10935 13048 13047 1
10936 13049 13047 1
10937 13050 13047 1
10938 13051 13050 1
10939 13053 13052 1
10940 13054 13053 1
10941 13055 13053 1
10942 13056 13053 1
10943 13057 13056 1
10944 13059 13058 1
10945 13060 13059 1
10946 13061 13059 1
10947 13062 13059 1
10948 13063 13062 1
10949 13065 13064 1
10950 13066 13065 1
10951 13067 13065 1
10952 13068 13065 1
10953 13069 13068 1
10954 13071 13070 1
10955 13072 13071 1
10956 13073 13071 1
10957 13074 13071 1
10958 13075 13074 1
10959 13077 13076 1
10960 13078 13077 1
10961 13079 13077 1
10962 13080 13077 1
10963 13081 13080 1
10964 13083 13082 1
10965 13084 13083 1
10966 13085 13083 1
10967 13086 13083 1
10968 13087 13086 1
10969 13089 13088 1
10970 13090 13089 1
10971 13091 13089 1
10972 13092 13089 1
10973 13093 13092 1
10974 13095 13094 1
10975 13096 13095 1
10976 13097 13095 1
10977 13098 13095 1
10978 13099 13098 1
10979 13101 13100 1
10980 13102 13101 1
10981 13103 13101 1
10982 13104 13101 1
10983 13105 13104 1
10984 13107 13106 1
10985 13108 13107 1
10986 13109 13107 1
10987 13110 13107 1
10988 13111 13110 1
10989 13113 13112 1
10990 13114 13113 1
10991 13115 13113 1
10992 13116 13113 1
10993 13117 13116 1
10994 13119 13118 1
10995 13120 13119 1
10996 13121 13119 1
10997 13122 13119 1
10998 13123 13122 1
10999 13125 13124 1
11000 13126 13125 1
11001 13127 13125 1
11002 13128 13125 1
11003 13129 13128 1
11004 13131 13130 1
11005 13132 13131 1
11006 13133 13131 1
11007 13134 13131 1
11008 13135 13134 1
11009 13137 13136 1
11010 13138 13137 1
11011 13139 13137 1
11012 13140 13137 1
11013 13141 13140 1
11014 13143 13142 1
11015 13144 13143 1
11016 13145 13143 1
11017 13146 13143 1
11018 13147 13146 1
11019 13149 13148 1
11020 13150 13149 1
11021 13151 13149 1
11022 13152 13149 1
11023 13153 13152 1
11024 13155 13154 1
11025 13156 13155 1
11026 13157 13155 1
11027 13158 13155 1
11028 13159 13158 1
11029 13161 13160 1
11030 13162 13161 1
11031 13163 13161 1
11032 13164 13161 1
11033 13165 13164 1
11034 13167 13166 1
11035 13168 13167 1
11036 13169 13167 1
11037 13170 13167 1
11038 13171 13170 1
11039 13173 13172 1
11040 13174 13173 1
11041 13175 13173 1
11042 13176 13173 1
11043 13177 13176 1
11044 13179 13178 1
11045 13180 13179 1
11046 13181 13179 1
11047 13182 13179 1
11048 13183 13182 1
11049 13185 13184 1
11050 13186 13185 1
11051 13187 13185 1
11052 13188 13185 1
11053 13189 13188 1
11054 13191 13190 1
11055 13192 13191 1
11056 13193 13191 1
11057 13194 13191 1
11058 13195 13194 1
11059 13197 13196 1
11060 13198 13197 1
11061 13199 13197 1
11062 13200 13197 1
11063 13201 13200 1
11064 13203 13202 1
11065 13204 13203 1
11066 13205 13203 1
11067 13206 13203 1
11068 13207 13206 1
11069 13209 13208 1
11070 13210 13209 1
11071 13211 13209 1
11072 13212 13209 1
11073 13213 13212 1
11074 13215 13214 1
11075 13216 13215 1
11076 13217 13215 1
11077 13218 13215 1
11078 13219 13218 1
11079 13221 13220 1
11080 13222 13221 1
11081 13223 13221 1
11082 13224 13221 1
11083 13225 13224 1
11084 13227 13226 1
11085 13228 13227 1
11086 13229 13227 1
11087 13230 13227 1
11088 13231 13230 1
11089 13233 13232 1
11090 13234 13233 1
11091 13235 13233 1
11092 13236 13233 1
11093 13237 13236 1
11094 13239 13238 1
11095 13240 13239 1
11096 13241 13239 1
11097 13242 13239 1
11098 13243 13242 1
11099 13245 13244 1
11100 13246 13245 1
11101 13247 13245 1
11102 13248 13245 1
11103 13249 13248 1
11104 13251 13250 1
11105 13252 13251 1
11106 13253 13251 1
11107 13254 13251 1
11108 13255 13254 1
11109 13257 13256 1
11110 13258 13257 1
11111 13259 13257 1
11112 13260 13257 1
11113 13261 13260 1
11114 13263 13262 1
11115 13264 13263 1
11116 13265 13263 1
11117 13266 13263 1
11118 13267 13266 1
11119 13269 13268 1
11120 13270 13269 1
11121 13271 13269 1
11122 13272 13269 1
11123 13273 13272 1
11124 13275 13274 1
11125 13276 13275 1
11126 13277 13275 1
11127 13278 13275 1
11128 13279 13278 1
11129 13281 13280 1
11130 13282 13281 1
11131 13283 13281 1
11132 13284 13281 1
11133 13285 13284 1
11134 13287 13286 1
11135 13288 13287 1
11136 13289 13287 1
11137 13290 13287 1
11138 13291 13290 1
11139 13293 13292 1
11140 13294 13293 1
11141 13295 13293 1
11142 13296 13293 1
11143 13297 13296 1
11144 13299 13298 1
11145 13300 13299 1
11146 13301 13299 1
11147 13302 13299 1
11148 13303 13302 1
11149 13305 13304 1
11150 13306 13305 1
11151 13307 13305 1
11152 13308 13305 1
11153 13309 13308 1
11154 13311 13310 1
11155 13312 13311 1
11156 13313 13311 1
11157 13314 13311 1
11158 13315 13314 1
11159 13317 13316 1
11160 13318 13317 1
11161 13319 13317 1
11162 13320 13317 1
11163 13321 13320 1
11164 13323 13322 1
11165 13324 13323 1
11166 13325 13323 1
11167 13326 13323 1
11168 13327 13326 1
11169 13329 13328 1
11170 13330 13329 1
11171 13331 13329 1
11172 13332 13329 1
11173 13333 13332 1
11174 13335 13334 1
11175 13336 13335 1
11176 13337 13335 1
11177 13338 13335 1
11178 13339 13338 1
11179 13341 13340 1
11180 13342 13341 1
11181 13343 13341 1
11182 13344 13341 1
11183 13345 13344 1
11184 13347 13346 1
11185 13348 13347 1
11186 13349 13347 1
11187 13350 13347 1
11188 13351 13350 1
11189 13353 13352 1
11190 13354 13353 1
11191 13355 13353 1
11192 13356 13353 1
11193 13357 13356 1
11194 13359 13358 1
11195 13360 13359 1
11196 13361 13359 1
11197 13362 13359 1
11198 13363 13362 1
11199 13365 13364 1
11200 13366 13365 1
11201 13367 13365 1
11202 13368 13365 1
11203 13369 13368 1
11204 13371 13370 1
11205 13372 13371 1
11206 13373 13371 1
11207 13374 13371 1
11208 13375 13374 1
11209 13377 13376 1
11210 13378 13377 1
11211 13379 13377 1
11212 13380 13377 1
11213 13381 13380 1
11214 13383 13382 1
11215 13384 13383 1
11216 13385 13383 1
11217 13386 13383 1
11218 13387 13386 1
11219 13389 13388 1
11220 13390 13389 1
11221 13391 13389 1
11222 13392 13389 1
11223 13393 13392 1
11224 13395 13394 1
11225 13396 13395 1
11226 13397 13395 1
11227 13398 13395 1
11228 13399 13398 1
11229 13401 13400 1
11230 13402 13401 1
11231 13403 13401 1
11232 13404 13401 1
11233 13405 13404 1
11234 13407 13406 1
11235 13408 13407 1
11236 13409 13407 1
11237 13410 13407 1
11238 13411 13410 1
11239 13413 13412 1
11240 13414 13413 1
11241 13415 13413 1
11242 13416 13413 1
11243 13417 13416 1
11244 13419 13418 1
11245 13420 13419 1
11246 13421 13419 1
11247 13422 13419 1
11248 13423 13422 1
11249 13425 13424 1
11250 13426 13425 1
11251 13427 13425 1
11252 13428 13425 1
11253 13429 13428 1
11254 13431 13430 1
11255 13432 13431 1
11256 13433 13431 1
11257 13434 13431 1
11258 13435 13434 1
11259 13437 13436 1
11260 13438 13437 1
11261 13439 13437 1
11262 13440 13437 1
11263 13441 13440 1
11264 13443 13442 1
11265 13444 13443 1
11266 13445 13443 1
11267 13446 13443 1
11268 13447 13446 1
11269 13449 13448 1
11270 13450 13449 1
11271 13451 13449 1
11272 13452 13449 1
11273 13453 13452 1
11274 13455 13454 1
11275 13456 13455 1
11276 13457 13455 1
11277 13458 13455 1
11278 13459 13458 1
11279 13461 13460 1
11280 13462 13461 1
11281 13463 13461 1
11282 13464 13461 1
11283 13465 13464 1
11284 13467 13466 1
11285 13468 13467 1
11286 13469 13467 1
11287 13470 13467 1
11288 13471 13470 1
11289 13473 13472 1
11290 13474 13473 1
11291 13475 13473 1
11292 13476 13473 1
11293 13477 13476 1
11294 13479 13478 1
11295 13480 13479 1
11296 13481 13479 1
11297 13482 13479 1
11298 13483 13482 1
11299 13485 13484 1
11300 13486 13485 1
11301 13487 13485 1
11302 13488 13485 1
11303 13489 13488 1
11304 13491 13490 1
11305 13492 13491 1
11306 13493 13491 1
11307 13494 13491 1
11308 13495 13494 1
11309 13497 13496 1
11310 13498 13497 1
11311 13499 13497 1
11312 13500 13497 1
11313 13501 13500 1
11314 13503 13502 1
11315 13504 13503 1
11316 13505 13503 1
11317 13506 13503 1
11318 13507 13506 1
11319 13509 13508 1
11320 13510 13509 1
11321 13511 13509 1
11322 13512 13509 1
11323 13513 13512 1
11324 13515 13514 1
11325 13516 13515 1
11326 13517 13515 1
11327 13518 13515 1
11328 13519 13518 1
11329 13521 13520 1
11330 13522 13521 1
11331 13523 13521 1
11332 13524 13521 1
11333 13525 13524 1
11334 13527 13526 1
11335 13528 13527 1
11336 13529 13527 1
11337 13530 13527 1
11338 13531 13530 1
11339 13533 13532 1
11340 13534 13533 1
11341 13535 13533 1
11342 13536 13533 1
11343 13537 13536 1
11344 13539 13538 1
11345 13540 13539 1
11346 13541 13539 1
11347 13542 13539 1
11348 13543 13542 1
11349 13545 13544 1
11350 13546 13545 1
11351 13547 13545 1
11352 13548 13545 1
11353 13549 13548 1
11354 13551 13550 1
11355 13552 13551 1
11356 13553 13551 1
11357 13554 13551 1
11358 13555 13554 1
11359 13557 13556 1
11360 13558 13557 1
11361 13559 13557 1
11362 13560 13557 1
11363 13561 13560 1
11364 13563 13562 1
11365 13564 13563 1
11366 13565 13563 1
11367 13566 13563 1
11368 13567 13566 1
11369 13569 13568 1
11370 13570 13569 1
11371 13571 13569 1
11372 13572 13569 1
11373 13573 13572 1
11374 13575 13574 1
11375 13576 13575 1
11376 13577 13575 1
11377 13578 13575 1
11378 13579 13578 1
11379 13581 13580 1
11380 13582 13581 1
11381 13583 13581 1
11382 13584 13581 1
11383 13585 13584 1
11384 13587 13586 1
11385 13588 13587 1
11386 13589 13587 1
11387 13590 13587 1
11388 13591 13590 1
11389 13593 13592 1
11390 13594 13593 1
11391 13595 13593 1
11392 13596 13593 1
11393 13597 13596 1
11394 13599 13598 1
11395 13600 13599 1
11396 13601 13599 1
11397 13602 13599 1
11398 13603 13602 1
11399 13605 13604 1
11400 13606 13605 1
11401 13607 13605 1
11402 13608 13605 1
11403 13609 13608 1
11404 13611 13610 1
11405 13612 13611 1
11406 13613 13611 1
11407 13614 13611 1
11408 13615 13614 1
11409 13617 13616 1
11410 13618 13617 1
11411 13619 13617 1
11412 13620 13617 1
11413 13621 13620 1
11414 13623 13622 1
11415 13624 13623 1
11416 13625 13623 1
11417 13626 13623 1
11418 13627 13626 1
11419 13629 13628 1
11420 13630 13629 1
11421 13631 13629 1
11422 13632 13629 1
11423 13633 13632 1
11424 13635 13634 1
11425 13636 13635 1
11426 13637 13635 1
11427 13638 13635 1
11428 13639 13638 1
11429 13641 13640 1
11430 13642 13641 1
11431 13643 13641 1
11432 13644 13641 1
11433 13645 13644 1
11434 13647 13646 1
11435 13648 13647 1
11436 13649 13647 1
11437 13650 13647 1
11438 13651 13650 1
11439 13653 13652 1
11440 13654 13653 1
11441 13655 13653 1
11442 13656 13653 1
11443 13657 13656 1
11444 13659 13658 1
11445 13660 13659 1
11446 13661 13659 1
11447 13662 13659 1
11448 13663 13662 1
11449 13665 13664 1
11450 13666 13665 1
11451 13667 13665 1
11452 13668 13665 1
11453 13669 13668 1
11454 13671 13670 1
11455 13672 13671 1
11456 13673 13671 1
11457 13674 13671 1
11458 13675 13674 1
11459 13677 13676 1
11460 13678 13677 1
11461 13679 13677 1
11462 13680 13677 1
11463 13681 13680 1
11464 13683 13682 1
11465 13684 13683 1
11466 13685 13683 1
11467 13686 13683 1
11468 13687 13686 1
11469 13689 13688 1
11470 13690 13689 1
11471 13691 13689 1
11472 13692 13689 1
11473 13693 13692 1
11474 13695 13694 1
11475 13696 13695 1
11476 13697 13695 1
11477 13698 13695 1
11478 13699 13698 1
11479 13701 13700 1
11480 13702 13701 1
11481 13703 13701 1
11482 13704 13701 1
11483 13705 13704 1
11484 13707 13706 1
11485 13708 13707 1
11486 13709 13707 1
11487 13710 13707 1
11488 13711 13710 1
11489 13713 13712 1
11490 13714 13713 1
11491 13715 13713 1
11492 13716 13713 1
11493 13717 13716 1
11494 13719 13718 1
11495 13720 13719 1
11496 13721 13719 1
11497 13722 13719 1
11498 13723 13722 1
11499 13725 13724 1
11500 13726 13725 1
11501 13727 13725 1
11502 13728 13725 1
11503 13729 13728 1
11504 13731 13730 1
11505 13732 13731 1
11506 13733 13731 1
11507 13734 13731 1
11508 13735 13734 1
11509 13737 13736 1
11510 13738 13737 1
11511 13739 13737 1
11512 13740 13737 1
11513 13741 13740 1
11514 13743 13742 1
11515 13744 13743 1
11516 13745 13743 1
11517 13746 13743 1
11518 13747 13746 1
11519 13749 13748 1
11520 13750 13749 1
11521 13751 13749 1
11522 13752 13749 1
11523 13753 13752 1
11524 13755 13754 1
11525 13756 13755 1
11526 13757 13755 1
11527 13758 13755 1
11528 13759 13758 1
11529 13761 13760 1
11530 13762 13761 1
11531 13763 13761 1
11532 13764 13761 1
11533 13765 13764 1
11534 13767 13766 1
11535 13768 13767 1
11536 13769 13767 1
11537 13770 13767 1
11538 13771 13770 1
11539 13773 13772 1
11540 13774 13773 1
11541 13775 13773 1
11542 13776 13773 1
11543 13777 13776 1
11544 13779 13778 1
11545 13780 13779 1
11546 13781 13779 1
11547 13782 13779 1
11548 13783 13782 1
11549 13785 13784 1
11550 13786 13785 1
11551 13787 13785 1
11552 13788 13785 1
11553 13789 13788 1
11554 13791 13790 1
11555 13792 13791 1
11556 13793 13791 1
11557 13794 13791 1
11558 13795 13794 1
11559 13797 13796 1
11560 13798 13797 1
11561 13799 13797 1
11562 13800 13797 1
11563 13801 13800 1
11564 13803 13802 1
11565 13804 13803 1
11566 13805 13803 1
11567 13806 13803 1
11568 13807 13806 1
11569 13809 13808 1
11570 13810 13809 1
11571 13811 13809 1
11572 13812 13809 1
11573 13813 13812 1
11574 13815 13814 1
11575 13816 13815 1
11576 13817 13815 1
11577 13818 13815 1
11578 13819 13818 1
11579 13821 13820 1
11580 13822 13821 1
11581 13823 13821 1
11582 13824 13821 1
11583 13825 13824 1
11584 13827 13826 1
11585 13828 13827 1
11586 13829 13827 1
11587 13830 13827 1
11588 13831 13830 1
11589 13833 13832 1
11590 13834 13833 1
11591 13835 13833 1
11592 13836 13833 1
11593 13837 13836 1
11594 13839 13838 1
11595 13840 13839 1
11596 13841 13839 1
11597 13842 13839 1
11598 13843 13842 1
11599 13845 13844 1
11600 13846 13845 1
11601 13847 13845 1
11602 13848 13845 1
11603 13849 13848 1
11604 13851 13850 1
11605 13852 13851 1
11606 13853 13851 1
11607 13854 13851 1
11608 13855 13854 1
11609 13857 13856 1
11610 13858 13857 1
11611 13859 13857 1
11612 13860 13857 1
11613 13861 13860 1
11614 13863 13862 1
11615 13864 13863 1
11616 13865 13863 1
11617 13866 13863 1
11618 13867 13866 1
11619 13869 13868 1
11620 13870 13869 1
11621 13871 13869 1
11622 13872 13869 1
11623 13873 13872 1
11624 13875 13874 1
11625 13876 13875 1
11626 13877 13875 1
11627 13878 13875 1
11628 13879 13878 1
11629 13881 13880 1
11630 13882 13881 1
11631 13883 13881 1
11632 13884 13881 1
11633 13885 13884 1
11634 13887 13886 1
11635 13888 13887 1
11636 13889 13887 1
11637 13890 13887 1
11638 13891 13890 1
11639 13893 13892 1
11640 13894 13893 1
11641 13895 13893 1
11642 13896 13893 1
11643 13897 13896 1
11644 13899 13898 1
11645 13900 13899 1
11646 13901 13899 1
11647 13902 13899 1
11648 13903 13902 1
11649 13905 13904 1
11650 13906 13905 1
11651 13907 13905 1
11652 13908 13905 1
11653 13909 13908 1
11654 13911 13910 1
11655 13912 13911 1
11656 13913 13911 1
11657 13914 13911 1
11658 13915 13914 1
11659 13917 13916 1
11660 13918 13917 1
11661 13919 13917 1
11662 13920 13917 1
11663 13921 13920 1
11664 13923 13922 1
11665 13924 13923 1
11666 13925 13923 1
11667 13926 13923 1
11668 13927 13926 1
11669 13929 13928 1
11670 13930 13929 1
11671 13931 13929 1
11672 13932 13929 1
11673 13933 13932 1
11674 13935 13934 1
11675 13936 13935 1
11676 13937 13935 1
11677 13938 13935 1
11678 13939 13938 1
11679 13941 13940 1
11680 13942 13941 1
11681 13943 13941 1
11682 13944 13941 1
11683 13945 13944 1
11684 13947 13946 1
11685 13948 13947 1
11686 13949 13947 1
11687 13950 13947 1
11688 13951 13950 1
11689 13953 13952 1
11690 13954 13953 1
11691 13955 13953 1
11692 13956 13953 1
11693 13957 13956 1
11694 13959 13958 1
11695 13960 13959 1
11696 13961 13959 1
11697 13962 13959 1
11698 13963 13962 1
11699 13965 13964 1
11700 13966 13965 1
11701 13967 13965 1
11702 13968 13965 1
11703 13969 13968 1
11704 13971 13970 1
11705 13972 13971 1
11706 13973 13971 1
11707 13974 13971 1
11708 13975 13974 1
11709 13977 13976 1
11710 13978 13977 1
11711 13979 13977 1
11712 13980 13977 1
11713 13981 13980 1
11714 13983 13982 1
11715 13984 13983 1
11716 13985 13983 1
11717 13986 13983 1
11718 13987 13986 1
11719 13989 13988 1
11720 13990 13989 1
11721 13991 13989 1
11722 13992 13989 1
11723 13993 13992 1
11724 13995 13994 1
11725 13996 13995 1
11726 13997 13995 1
11727 13998 13995 1
11728 13999 13998 1
11729 14001 14000 1
11730 14002 14001 1
11731 14003 14001 1
11732 14004 14001 1
11733 14005 14004 1
11734 14007 14006 1
11735 14008 14007 1
11736 14009 14007 1
11737 14010 14007 1
11738 14011 14010 1
11739 14013 14012 1
11740 14014 14013 1
11741 14015 14013 1
11742 14016 14013 1
11743 14017 14016 1
11744 14019 14018 1
11745 14020 14019 1
11746 14021 14019 1
11747 14022 14019 1
11748 14023 14022 1
11749 14025 14024 1
11750 14026 14025 1
11751 14027 14025 1
11752 14028 14025 1
11753 14029 14028 1
11754 14031 14030 1
11755 14032 14031 1
11756 14033 14031 1
11757 14034 14031 1
11758 14035 14034 1
11759 14037 14036 1
11760 14038 14037 1
11761 14039 14037 1
11762 14040 14037 1
11763 14041 14040 1
11764 14043 14042 1
11765 14044 14043 1
11766 14045 14043 1
11767 14046 14043 1
11768 14047 14046 1
11769 14049 14048 1
11770 14050 14049 1
11771 14051 14049 1
11772 14052 14049 1
11773 14053 14052 1
11774 14055 14054 1
11775 14056 14055 1
11776 14057 14055 1
11777 14058 14055 1
11778 14059 14058 1
11779 14061 14060 1
11780 14062 14061 1
11781 14063 14061 1
11782 14064 14061 1
11783 14065 14064 1
11784 14067 14066 1
11785 14068 14067 1
11786 14069 14067 1
11787 14070 14067 1
11788 14071 14070 1
11789 14073 14072 1
11790 14074 14073 1
11791 14075 14073 1
11792 14076 14073 1
11793 14077 14076 1
11794 14079 14078 1
11795 14080 14079 1
11796 14081 14079 1
11797 14082 14079 1
11798 14083 14082 1
11799 14085 14084 1
11800 14086 14085 1
11801 14087 14085 1
11802 14088 14085 1
11803 14089 14088 1
11804 14091 14090 1
11805 14092 14091 1
11806 14093 14091 1
11807 14094 14091 1
11808 14095 14094 1
11809 14097 14096 1
11810 14098 14097 1
11811 14099 14097 1
11812 14100 14097 1
11813 14101 14100 1
11814 14103 14102 1
11815 14104 14103 1
11816 14105 14103 1
11817 14106 14103 1
11818 14107 14106 1
11819 14109 14108 1
11820 14110 14109 1
11821 14111 14109 1
11822 14112 14109 1
11823 14113 14112 1
11824 14115 14114 1
11825 14116 14115 1
11826 14117 14115 1
11827 14118 14115 1
11828 14119 14118 1
11829 14121 14120 1
11830 14122 14121 1
11831 14123 14121 1
11832 14124 14121 1
11833 14125 14124 1
11834 14127 14126 1
11835 14128 14127 1
11836 14129 14127 1
11837 14130 14127 1
11838 14131 14130 1
11839 14133 14132 1
11840 14134 14133 1
11841 14135 14133 1
11842 14136 14133 1
11843 14137 14136 1
11844 14139 14138 1
11845 14140 14139 1
11846 14141 14139 1
11847 14142 14139 1
11848 14143 14142 1
11849 14145 14144 1
11850 14146 14145 1
11851 14147 14145 1
11852 14148 14145 1
11853 14149 14148 1
11854 14151 14150 1
11855 14152 14151 1
11856 14153 14151 1
11857 14154 14151 1
11858 14155 14154 1
11859 14157 14156 1
11860 14158 14157 1
11861 14159 14157 1
11862 14160 14157 1
11863 14161 14160 1
11864 14163 14162 1
11865 14164 14163 1
11866 14165 14163 1
11867 14166 14163 1
11868 14167 14166 1
11869 14169 14168 1
11870 14170 14169 1
11871 14171 14169 1
11872 14172 14169 1
11873 14173 14172 1
11874 14175 14174 1
11875 14176 14175 1
11876 14177 14175 1
11877 14178 14175 1
11878 14179 14178 1
11879 14181 14180 1
11880 14182 14181 1
11881 14183 14181 1
11882 14184 14181 1
11883 14185 14184 1
11884 14187 14186 1
11885 14188 14187 1
11886 14189 14187 1
11887 14190 14187 1
11888 14191 14190 1
11889 14193 14192 1
11890 14194 14193 1
11891 14195 14193 1
11892 14196 14193 1
11893 14197 14196 1
11894 14199 14198 1
11895 14200 14199 1
11896 14201 14199 1
11897 14202 14199 1
11898 14203 14202 1
11899 14205 14204 1
11900 14206 14205 1
11901 14207 14205 1
11902 14208 14205 1
11903 14209 14208 1
11904 14211 14210 1
11905 14212 14211 1
11906 14213 14211 1
11907 14214 14211 1
11908 14215 14214 1
11909 14217 14216 1
11910 14218 14217 1
11911 14219 14217 1
11912 14220 14217 1
11913 14221 14220 1
11914 14223 14222 1
11915 14224 14223 1
11916 14225 14223 1
11917 14226 14223 1
11918 14227 14226 1
11919 14229 14228 1
11920 14230 14229 1
11921 14231 14229 1
11922 14232 14229 1
11923 14233 14232 1
11924 14235 14234 1
11925 14236 14235 1
11926 14237 14235 1
11927 14238 14235 1
11928 14239 14238 1
11929 14241 14240 1
11930 14242 14241 1
11931 14243 14241 1
11932 14244 14241 1
11933 14245 14244 1
11934 14247 14246 1
11935 14248 14247 1
11936 14249 14247 1
11937 14250 14247 1
11938 14251 14250 1
11939 14253 14252 1
11940 14254 14253 1
11941 14255 14253 1
11942 14256 14253 1
11943 14257 14256 1
11944 14259 14258 1
11945 14260 14259 1
11946 14261 14259 1
11947 14262 14259 1
11948 14263 14262 1
11949 14265 14264 1
11950 14266 14265 1
11951 14267 14265 1
11952 14268 14265 1
11953 14269 14268 1
11954 14271 14270 1
11955 14272 14271 1
11956 14273 14271 1
11957 14274 14271 1
11958 14275 14274 1
11959 14277 14276 1
11960 14278 14277 1
11961 14279 14277 1
11962 14280 14277 1
11963 14281 14280 1
11964 14283 14282 1
11965 14284 14283 1
11966 14285 14283 1
11967 14286 14283 1
11968 14287 14286 1
11969 14289 14288 1
11970 14290 14289 1
11971 14291 14289 1
11972 14292 14289 1
11973 14293 14292 1
11974 14295 14294 1
11975 14296 14295 1
11976 14297 14295 1
11977 14298 14295 1
11978 14299 14298 1
11979 14301 14300 1
11980 14302 14301 1
11981 14303 14301 1
11982 14304 14301 1
11983 14305 14304 1
11984 14307 14306 1
11985 14308 14307 1
11986 14309 14307 1
11987 14310 14307 1
11988 14311 14310 1
11989 14313 14312 1
11990 14314 14313 1
11991 14315 14313 1
11992 14316 14313 1
11993 14317 14316 1
11994 14319 14318 1
11995 14320 14319 1
11996 14321 14319 1
11997 14322 14319 1
11998 14323 14322 1
11999 14325 14324 1
12000 14326 14325 1
12001 14327 14325 1
12002 14328 14325 1
12003 14329 14328 1
12004 14331 14330 1
12005 14332 14331 1
12006 14333 14331 1
12007 14334 14331 1
12008 14335 14334 1
12009 14337 14336 1
12010 14338 14337 1
12011 14339 14337 1
12012 14340 14337 1
12013 14341 14340 1
12014 14343 14342 1
12015 14344 14343 1
12016 14345 14343 1
12017 14346 14343 1
12018 14347 14346 1
12019 14349 14348 1
12020 14350 14349 1
12021 14351 14349 1
12022 14352 14349 1
12023 14353 14352 1
12024 14355 14354 1
12025 14356 14355 1
12026 14357 14355 1
12027 14358 14355 1
12028 14359 14358 1
12029 14361 14360 1
12030 14362 14361 1
12031 14363 14361 1
12032 14364 14361 1
12033 14365 14364 1
12034 14367 14366 1
12035 14368 14367 1
12036 14369 14367 1
12037 14370 14367 1
12038 14371 14370 1
12039 14373 14372 1
12040 14374 14373 1
12041 14375 14373 1
12042 14376 14373 1
12043 14377 14376 1
12044 14379 14378 1
12045 14380 14379 1
12046 14381 14379 1
12047 14382 14379 1
12048 14383 14382 1
12049 14385 14384 1
12050 14386 14385 1
12051 14387 14385 1
12052 14388 14385 1
12053 14389 14388 1
12054 14391 14390 1
12055 14392 14391 1
12056 14393 14391 1
12057 14394 14391 1
12058 14395 14394 1
12059 14397 14396 1
12060 14398 14397 1
12061 14399 14397 1
12062 14400 14397 1
12063 14401 14400 1
12064 14403 14402 1
12065 14404 14403 1
12066 14405 14403 1
12067 14406 14403 1
12068 14407 14406 1
12069 14409 14408 1
12070 14410 14409 1
12071 14411 14409 1
12072 14412 14409 1
12073 14413 14412 1
12074 14415 14414 1
12075 14416 14415 1
12076 14417 14415 1
12077 14418 14415 1
12078 14419 14418 1
12079 14421 14420 1
12080 14422 14421 1
12081 14423 14421 1
12082 14424 14421 1
12083 14425 14424 1
12084 14427 14426 1
12085 14428 14427 1
12086 14429 14427 1
12087 14430 14427 1
12088 14431 14430 1
12089 14433 14432 1
12090 14434 14433 1
12091 14435 14433 1
12092 14436 14433 1
12093 14437 14436 1
12094 14439 14438 1
12095 14440 14439 1
12096 14441 14439 1
12097 14442 14439 1
12098 14443 14442 1
12099 14445 14444 1
12100 14446 14445 1
12101 14447 14445 1
12102 14448 14445 1
12103 14449 14448 1
12104 14451 14450 1
12105 14452 14451 1
12106 14453 14451 1
12107 14454 14451 1
12108 14455 14454 1
12109 14457 14456 1
12110 14458 14457 1
12111 14459 14457 1
12112 14460 14457 1
12113 14461 14460 1
12114 14463 14462 1
12115 14464 14463 1
12116 14465 14463 1
12117 14466 14463 1
12118 14467 14466 1
12119 14469 14468 1
12120 14470 14469 1
12121 14471 14469 1
12122 14472 14469 1
12123 14473 14472 1
12124 14475 14474 1
12125 14476 14475 1
12126 14477 14475 1
12127 14478 14475 1
12128 14479 14478 1
12129 14481 14480 1
12130 14482 14481 1
12131 14483 14481 1
12132 14484 14481 1
12133 14485 14484 1
12134 14487 14486 1
12135 14488 14487 1
12136 14489 14487 1
12137 14490 14487 1
12138 14491 14490 1
12139 14493 14492 1
12140 14494 14493 1
12141 14495 14493 1
12142 14496 14493 1
12143 14497 14496 1
12144 14499 14498 1
12145 14500 14499 1
12146 14501 14499 1
12147 14502 14499 1
12148 14503 14502 1
12149 14505 14504 1
12150 14506 14505 1
12151 14507 14505 1
12152 14508 14505 1
12153 14509 14508 1
12154 14511 14510 1
12155 14512 14511 1
12156 14513 14511 1
12157 14514 14511 1
12158 14515 14514 1
12159 14517 14516 1
12160 14518 14517 1
12161 14519 14517 1
12162 14520 14517 1
12163 14521 14520 1
12164 14523 14522 1
12165 14524 14523 1
12166 14525 14523 1
12167 14526 14523 1
12168 14527 14526 1
12169 14529 14528 1
12170 14530 14529 1
12171 14531 14529 1
12172 14532 14529 1
12173 14533 14532 1
12174 14535 14534 1
12175 14536 14535 1
12176 14537 14535 1
12177 14538 14535 1
12178 14539 14538 1
12179 14541 14540 1
12180 14542 14541 1
12181 14543 14541 1
12182 14544 14541 1
12183 14545 14544 1
12184 14547 14546 1
12185 14548 14547 1
12186 14549 14547 1
12187 14550 14547 1
12188 14551 14550 1
12189 14553 14552 1
12190 14554 14553 1
12191 14555 14553 1
12192 14556 14553 1
12193 14557 14556 1
12194 14559 14558 1
12195 14560 14559 1
12196 14561 14559 1
12197 14562 14559 1
12198 14563 14562 1
12199 14565 14564 1
12200 14566 14565 1
12201 14567 14565 1
12202 14568 14565 1
12203 14569 14568 1
12204 14571 14570 1
12205 14572 14571 1
12206 14573 14571 1
12207 14574 14571 1
12208 14575 14574 1
12209 14577 14576 1
12210 14578 14577 1
12211 14579 14577 1
12212 14580 14577 1
12213 14581 14580 1
12214 14583 14582 1
12215 14584 14583 1
12216 14585 14583 1
12217 14586 14583 1
12218 14587 14586 1
12219 14589 14588 1
12220 14590 14589 1
12221 14591 14589 1
12222 14592 14589 1
12223 14593 14592 1
12224 14595 14594 1
12225 14596 14595 1
12226 14597 14595 1
12227 14598 14595 1
12228 14599 14598 1
12229 14601 14600 1
12230 14602 14601 1
12231 14603 14601 1
12232 14604 14601 1
12233 14605 14604 1
12234 14607 14606 1
12235 14608 14607 1
12236 14609 14607 1
12237 14610 14607 1
12238 14611 14610 1
12239 14613 14612 1
12240 14614 14613 1
12241 14615 14613 1
12242 14616 14613 1
12243 14617 14616 1
12244 14619 14618 1
12245 14620 14619 1
12246 14621 14619 1
12247 14622 14619 1
12248 14623 14622 1
12249 14625 14624 1
12250 14626 14625 1
12251 14627 14625 1
12252 14628 14625 1
12253 14629 14628 1
12254 14631 14630 1
12255 14632 14631 1
12256 14633 14631 1
12257 14634 14631 1
12258 14635 14634 1
12259 14637 14636 1
12260 14638 14637 1
12261 14639 14637 1
12262 14640 14637 1
12263 14641 14640 1
12264 14643 14642 1
12265 14644 14643 1
12266 14645 14643 1
12267 14646 14643 1
12268 14647 14646 1
12269 14649 14648 1
12270 14650 14649 1
12271 14651 14649 1
12272 14652 14649 1
12273 14653 14652 1
12274 14655 14654 1
12275 14656 14655 1
12276 14657 14655 1
12277 14658 14655 1
12278 14659 14658 1
12279 14661 14660 1
12280 14662 14661 1
12281 14663 14661 1
12282 14664 14661 1
12283 14665 14664 1
12284 14667 14666 1
12285 14668 14667 1
12286 14669 14667 1
12287 14670 14667 1
12288 14671 14670 1
12289 14673 14672 1
12290 14674 14673 1
12291 14675 14673 1
12292 14676 14673 1
12293 14677 14676 1
12294 14679 14678 1
12295 14680 14679 1
12296 14681 14679 1
12297 14682 14679 1
12298 14683 14682 1
12299 14685 14684 1
12300 14686 14685 1
12301 14687 14685 1
12302 14688 14685 1
12303 14689 14688 1
12304 14691 14690 1
12305 14692 14691 1
12306 14693 14691 1
12307 14694 14691 1
12308 14695 14694 1
12309 14697 14696 1
12310 14698 14697 1
12311 14699 14697 1
12312 14700 14697 1
12313 14701 14700 1
12314 14703 14702 1
12315 14704 14703 1
12316 14705 14703 1
12317 14706 14703 1
12318 14707 14706 1
12319 14709 14708 1
12320 14710 14709 1
12321 14711 14709 1
12322 14712 14709 1
12323 14713 14712 1
12324 14715 14714 1
12325 14716 14715 1
12326 14717 14715 1
12327 14718 14715 1
12328 14719 14718 1
12329 14721 14720 1
12330 14722 14721 1
12331 14723 14721 1
12332 14724 14721 1
12333 14725 14724 1
12334 14727 14726 1
12335 14728 14727 1
12336 14729 14727 1
12337 14730 14727 1
12338 14731 14730 1
12339 14733 14732 1
12340 14734 14733 1
12341 14735 14733 1
12342 14736 14733 1
12343 14737 14736 1
12344 14739 14738 1
12345 14740 14739 1
12346 14741 14739 1
12347 14742 14739 1
12348 14743 14742 1
12349 14745 14744 1
12350 14746 14745 1
12351 14747 14745 1
12352 14748 14745 1
12353 14749 14748 1
12354 14751 14750 1
12355 14752 14751 1
12356 14753 14751 1
12357 14754 14751 1
12358 14755 14754 1
12359 14757 14756 1
12360 14758 14757 1
12361 14759 14757 1
12362 14760 14757 1
12363 14761 14760 1
12364 14763 14762 1
12365 14764 14763 1
12366 14765 14763 1
12367 14766 14763 1
12368 14767 14766 1
@<TRIPOS>SUBSTRUCTURE
      1  XAP              1 ****               0 ****  **** 
      2 rAPO             14 ****               0 ****  **** 
      3 rPOO             65 ****               0 ****  **** 
      4 rOOP            113 ****               0 ****  **** 
      5 rOPO            161 ****               0 ****  **** 
      6 rPOO            212 ****               0 ****  **** 
      7 rOOO            260 ****               0 ****  **** 
      8 rOOT            308 ****               0 ****  **** 
      9 rOTX            353 ****               0 ****  **** 
     10  DNI            371 ****               0 ****  **** 
     11  Cl-            378 ****               0 ****  **** 
     12  Cl-            379 ****               0 ****  **** 
     13  MOH            380 ****               0 ****  **** 
     14  MOH            386 ****               0 ****  **** 
     15  MOH            392 ****               0 ****  **** 
     16  MOH            398 ****               0 ****  **** 
     17  MOH            404 ****               0 ****  **** 
     18  MOH            410 ****               0 ****  **** 
     19  MOH            416 ****               0 ****  **** 
     20  MOH            422 ****               0 ****  **** 
     21  MOH            428 ****               0 ****  **** 
     22  MOH            434 ****               0 ****  **** 
     23  MOH            440 ****               0 ****  **** 
     24  MOH            446 ****               0 ****  **** 
     25  MOH            452 ****               0 ****  **** 
     26  MOH            458 ****               0 ****  **** 
     27  MOH            464 ****               0 ****  **** 
     28  MOH            470 ****               0 ****  **** 
     29  MOH            476 ****               0 ****  **** 
     30  MOH            482 ****               0 ****  **** 
     31  MOH            488 ****               0 ****  **** 
     32  MOH            494 ****               0 ****  **** 
     33  MOH            500 ****               0 ****  **** 
     34  MOH            506 ****               0 ****  **** 
     35  MOH            512 ****               0 ****  **** 
     36  MOH            518 ****               0 ****  **** 
     37  MOH            524 ****               0 ****  **** 
     38  MOH            530 ****               0 ****  **** 
     39  MOH            536 ****               0 ****  **** 
     40  MOH            542 ****               0 ****  **** 
     41  MOH            548 ****               0 ****  **** 
     42  MOH            554 ****               0 ****  **** 
     43  MOH            560 ****               0 ****  **** 
     44  MOH            566 ****               0 ****  **** 
     45  MOH            572 ****               0 ****  **** 
     46  MOH            578 ****               0 ****  **** 
     47  MOH            584 ****               0 ****  **** 
     48  MOH            590 ****               0 ****  **** 
     49  MOH            596 ****               0 ****  **** 
     50  MOH            602 ****               0 ****  **** 
     51  MOH            608 ****               0 ****  **** 
     52  MOH            614 ****               0 ****  **** 
     53  MOH            620 ****               0 ****  **** 
     54  MOH            626 ****               0 ****  **** 
     55  MOH            632 ****               0 ****  **** 
     56  MOH            638 ****               0 ****  **** 
     57  MOH            644 ****               0 ****  **** 
     58  MOH            650 ****               0 ****  **** 
     59  MOH            656 ****               0 ****  **** 
     60  MOH            662 ****               0 ****  **** 
     61  MOH            668 ****               0 ****  **** 
     62  MOH            674 ****               0 ****  **** 
     63  MOH            680 ****               0 ****  **** 
     64  MOH            686 ****               0 ****  **** 
     65  MOH            692 ****               0 ****  **** 
     66  MOH            698 ****               0 ****  **** 
     67  MOH            704 ****               0 ****  **** 
     68  MOH            710 ****               0 ****  **** 
     69  MOH            716 ****               0 ****  **** 
     70  MOH            722 ****               0 ****  **** 
     71  MOH            728 ****               0 ****  **** 
     72  MOH            734 ****               0 ****  **** 
     73  MOH            740 ****               0 ****  **** 
     74  MOH            746 ****               0 ****  **** 
     75  MOH            752 ****               0 ****  **** 
     76  MOH            758 ****               0 ****  **** 
     77  MOH            764 ****               0 ****  **** 
     78  MOH            770 ****               0 ****  **** 
     79  MOH            776 ****               0 ****  **** 
     80  MOH            782 ****               0 ****  **** 
     81  MOH            788 ****               0 ****  **** 
     82  MOH            794 ****               0 ****  **** 
     83  MOH            800 ****               0 ****  **** 
     84  MOH            806 ****               0 ****  **** 
     85  MOH            812 ****               0 ****  **** 
     86  MOH            818 ****               0 ****  **** 
     87  MOH            824 ****               0 ****  **** 
     88  MOH            830 ****               0 ****  **** 
     89  MOH            836 ****               0 ****  **** 
     90  MOH            842 ****               0 ****  **** 
     91  MOH            848 ****               0 ****  **** 
     92  MOH            854 ****               0 ****  **** 
     93  MOH            860 ****               0 ****  **** 
     94  MOH            866 ****               0 ****  **** 
     95  MOH            872 ****               0 ****  **** 
     96  MOH            878 ****               0 ****  **** 
     97  MOH            884 ****               0 ****  **** 
     98  MOH            890 ****               0 ****  **** 
     99  MOH            896 ****               0 ****  **** 
    100  MOH            902 ****               0 ****  **** 
    101  MOH            908 ****               0 ****  **** 
    102  MOH            914 ****               0 ****  **** 
    103  MOH            920 ****               0 ****  **** 
    104  MOH            926 ****               0 ****  **** 
    105  MOH            932 ****               0 ****  **** 
    106  MOH            938 ****               0 ****  **** 
    107  MOH            944 ****               0 ****  **** 
    108  MOH            950 ****               0 ****  **** 
    109  MOH            956 ****               0 ****  **** 
    110  MOH            962 ****               0 ****  **** 
    111  MOH            968 ****               0 ****  **** 
    112  MOH            974 ****               0 ****  **** 
    113  MOH            980 ****               0 ****  **** 
    114  MOH            986 ****               0 ****  **** 
    115  MOH            992 ****               0 ****  **** 
    116  MOH            998 ****               0 ****  **** 
    117  MOH           1004 ****               0 ****  **** 
    118  MOH           1010 ****               0 ****  **** 
    119  MOH           1016 ****               0 ****  **** 
    120  MOH           1022 ****               0 ****  **** 
    121  MOH           1028 ****               0 ****  **** 
    122  MOH           1034 ****               0 ****  **** 
    123  MOH           1040 ****               0 ****  **** 
    124  MOH           1046 ****               0 ****  **** 
    125  MOH           1052 ****               0 ****  **** 
    126  MOH           1058 ****               0 ****  **** 
    127  MOH           1064 ****               0 ****  **** 
    128  MOH           1070 ****               0 ****  **** 
    129  MOH           1076 ****               0 ****  **** 
    130  MOH           1082 ****               0 ****  **** 
    131  MOH           1088 ****               0 ****  **** 
    132  MOH           1094 ****               0 ****  **** 
    133  MOH           1100 ****               0 ****  **** 
    134  MOH           1106 ****               0 ****  **** 
    135  MOH           1112 ****               0 ****  **** 
    136  MOH           1118 ****               0 ****  **** 
    137  MOH           1124 ****               0 ****  **** 
    138  MOH           1130 ****               0 ****  **** 
    139  MOH           1136 ****               0 ****  **** 
    140  MOH           1142 ****               0 ****  **** 
    141  MOH           1148 ****               0 ****  **** 
    142  MOH           1154 ****               0 ****  **** 
    143  MOH           1160 ****               0 ****  **** 
    144  MOH           1166 ****               0 ****  **** 
    145  MOH           1172 ****               0 ****  **** 
    146  MOH           1178 ****               0 ****  **** 
    147  MOH           1184 ****               0 ****  **** 
    148  MOH           1190 ****               0 ****  **** 
    149  MOH           1196 ****               0 ****  **** 
    150  MOH           1202 ****               0 ****  **** 
    151  MOH           1208 ****               0 ****  **** 
    152  MOH           1214 ****               0 ****  **** 
    153  MOH           1220 ****               0 ****  **** 
    154  MOH           1226 ****               0 ****  **** 
    155  MOH           1232 ****               0 ****  **** 
    156  MOH           1238 ****               0 ****  **** 
    157  MOH           1244 ****               0 ****  **** 
    158  MOH           1250 ****               0 ****  **** 
    159  MOH           1256 ****               0 ****  **** 
    160  MOH           1262 ****               0 ****  **** 
    161  MOH           1268 ****               0 ****  **** 
    162  MOH           1274 ****               0 ****  **** 
    163  MOH           1280 ****               0 ****  **** 
    164  MOH           1286 ****               0 ****  **** 
    165  MOH           1292 ****               0 ****  **** 
    166  MOH           1298 ****               0 ****  **** 
    167  MOH           1304 ****               0 ****  **** 
    168  MOH           1310 ****               0 ****  **** 
    169  MOH           1316 ****               0 ****  **** 
    170  MOH           1322 ****               0 ****  **** 
    171  MOH           1328 ****               0 ****  **** 
    172  MOH           1334 ****               0 ****  **** 
    173  MOH           1340 ****               0 ****  **** 
    174  MOH           1346 ****               0 ****  **** 
    175  MOH           1352 ****               0 ****  **** 
    176  MOH           1358 ****               0 ****  **** 
    177  MOH           1364 ****               0 ****  **** 
    178  MOH           1370 ****               0 ****  **** 
    179  MOH           1376 ****               0 ****  **** 
    180  MOH           1382 ****               0 ****  **** 
    181  MOH           1388 ****               0 ****  **** 
    182  MOH           1394 ****               0 ****  **** 
    183  MOH           1400 ****               0 ****  **** 
    184  MOH           1406 ****               0 ****  **** 
    185  MOH           1412 ****               0 ****  **** 
    186  MOH           1418 ****               0 ****  **** 
    187  MOH           1424 ****               0 ****  **** 
    188  MOH           1430 ****               0 ****  **** 
    189  MOH           1436 ****               0 ****  **** 
    190  MOH           1442 ****               0 ****  **** 
    191  MOH           1448 ****               0 ****  **** 
    192  MOH           1454 ****               0 ****  **** 
    193  MOH           1460 ****               0 ****  **** 
    194  MOH           1466 ****               0 ****  **** 
    195  MOH           1472 ****               0 ****  **** 
    196  MOH           1478 ****               0 ****  **** 
    197  MOH           1484 ****               0 ****  **** 
    198  MOH           1490 ****               0 ****  **** 
    199  MOH           1496 ****               0 ****  **** 
    200  MOH           1502 ****               0 ****  **** 
    201  MOH           1508 ****               0 ****  **** 
    202  MOH           1514 ****               0 ****  **** 
    203  MOH           1520 ****               0 ****  **** 
    204  MOH           1526 ****               0 ****  **** 
    205  MOH           1532 ****               0 ****  **** 
    206  MOH           1538 ****               0 ****  **** 
    207  MOH           1544 ****               0 ****  **** 
    208  MOH           1550 ****               0 ****  **** 
    209  MOH           1556 ****               0 ****  **** 
    210  MOH           1562 ****               0 ****  **** 
    211  MOH           1568 ****               0 ****  **** 
    212  MOH           1574 ****               0 ****  **** 
    213  MOH           1580 ****               0 ****  **** 
    214  MOH           1586 ****               0 ****  **** 
    215  MOH           1592 ****               0 ****  **** 
    216  MOH           1598 ****               0 ****  **** 
    217  MOH           1604 ****               0 ****  **** 
    218  MOH           1610 ****               0 ****  **** 
    219  MOH           1616 ****               0 ****  **** 
    220  MOH           1622 ****               0 ****  **** 
    221  MOH           1628 ****               0 ****  **** 
    222  MOH           1634 ****               0 ****  **** 
    223  MOH           1640 ****               0 ****  **** 
    224  MOH           1646 ****               0 ****  **** 
    225  MOH           1652 ****               0 ****  **** 
    226  MOH           1658 ****               0 ****  **** 
    227  MOH           1664 ****               0 ****  **** 
    228  MOH           1670 ****               0 ****  **** 
    229  MOH           1676 ****               0 ****  **** 
    230  MOH           1682 ****               0 ****  **** 
    231  MOH           1688 ****               0 ****  **** 
    232  MOH           1694 ****               0 ****  **** 
    233  MOH           1700 ****               0 ****  **** 
    234  MOH           1706 ****               0 ****  **** 
    235  MOH           1712 ****               0 ****  **** 
    236  MOH           1718 ****               0 ****  **** 
    237  MOH           1724 ****               0 ****  **** 
    238  MOH           1730 ****               0 ****  **** 
    239  MOH           1736 ****               0 ****  **** 
    240  MOH           1742 ****               0 ****  **** 
    241  MOH           1748 ****               0 ****  **** 
    242  MOH           1754 ****               0 ****  **** 
    243  MOH           1760 ****               0 ****  **** 
    244  MOH           1766 ****               0 ****  **** 
    245  MOH           1772 ****               0 ****  **** 
    246  MOH           1778 ****               0 ****  **** 
    247  MOH           1784 ****               0 ****  **** 
    248  MOH           1790 ****               0 ****  **** 
    249  MOH           1796 ****               0 ****  **** 
    250  MOH           1802 ****               0 ****  **** 
    251  MOH           1808 ****               0 ****  **** 
    252  MOH           1814 ****               0 ****  **** 
    253  MOH           1820 ****               0 ****  **** 
    254  MOH           1826 ****               0 ****  **** 
    255  MOH           1832 ****               0 ****  **** 
    256  MOH           1838 ****               0 ****  **** 
    257  MOH           1844 ****               0 ****  **** 
    258  MOH           1850 ****               0 ****  **** 
    259  MOH           1856 ****               0 ****  **** 
    260  MOH           1862 ****               0 ****  **** 
    261  MOH           1868 ****               0 ****  **** 
    262  MOH           1874 ****               0 ****  **** 
    263  MOH           1880 ****               0 ****  **** 
    264  MOH           1886 ****               0 ****  **** 
    265  MOH           1892 ****               0 ****  **** 
    266  MOH           1898 ****               0 ****  **** 
    267  MOH           1904 ****               0 ****  **** 
    268  MOH           1910 ****               0 ****  **** 
    269  MOH           1916 ****               0 ****  **** 
    270  MOH           1922 ****               0 ****  **** 
    271  MOH           1928 ****               0 ****  **** 
    272  MOH           1934 ****               0 ****  **** 
    273  MOH           1940 ****               0 ****  **** 
    274  MOH           1946 ****               0 ****  **** 
    275  MOH           1952 ****               0 ****  **** 
    276  MOH           1958 ****               0 ****  **** 
    277  MOH           1964 ****               0 ****  **** 
    278  MOH           1970 ****               0 ****  **** 
    279  MOH           1976 ****               0 ****  **** 
    280  MOH           1982 ****               0 ****  **** 
    281  MOH           1988 ****               0 ****  **** 
    282  MOH           1994 ****               0 ****  **** 
    283  MOH           2000 ****               0 ****  **** 
    284  MOH           2006 ****               0 ****  **** 
    285  MOH           2012 ****               0 ****  **** 
    286  MOH           2018 ****               0 ****  **** 
    287  MOH           2024 ****               0 ****  **** 
    288  MOH           2030 ****               0 ****  **** 
    289  MOH           2036 ****               0 ****  **** 
    290  MOH           2042 ****               0 ****  **** 
    291  MOH           2048 ****               0 ****  **** 
    292  MOH           2054 ****               0 ****  **** 
    293  MOH           2060 ****               0 ****  **** 
    294  MOH           2066 ****               0 ****  **** 
    295  MOH           2072 ****               0 ****  **** 
    296  MOH           2078 ****               0 ****  **** 
    297  MOH           2084 ****               0 ****  **** 
    298  MOH           2090 ****               0 ****  **** 
    299  MOH           2096 ****               0 ****  **** 
    300  MOH           2102 ****               0 ****  **** 
    301  MOH           2108 ****               0 ****  **** 
    302  MOH           2114 ****               0 ****  **** 
    303  MOH           2120 ****               0 ****  **** 
    304  MOH           2126 ****               0 ****  **** 
    305  MOH           2132 ****               0 ****  **** 
    306  MOH           2138 ****               0 ****  **** 
    307  MOH           2144 ****               0 ****  **** 
    308  MOH           2150 ****               0 ****  **** 
    309  MOH           2156 ****               0 ****  **** 
    310  MOH           2162 ****               0 ****  **** 
    311  MOH           2168 ****               0 ****  **** 
    312  MOH           2174 ****               0 ****  **** 
    313  MOH           2180 ****               0 ****  **** 
    314  MOH           2186 ****               0 ****  **** 
    315  MOH           2192 ****               0 ****  **** 
    316  MOH           2198 ****               0 ****  **** 
    317  MOH           2204 ****               0 ****  **** 
    318  MOH           2210 ****               0 ****  **** 
    319  MOH           2216 ****               0 ****  **** 
    320  MOH           2222 ****               0 ****  **** 
    321  MOH           2228 ****               0 ****  **** 
    322  MOH           2234 ****               0 ****  **** 
    323  MOH           2240 ****               0 ****  **** 
    324  MOH           2246 ****               0 ****  **** 
    325  MOH           2252 ****               0 ****  **** 
    326  MOH           2258 ****               0 ****  **** 
    327  MOH           2264 ****               0 ****  **** 
    328  MOH           2270 ****               0 ****  **** 
    329  MOH           2276 ****               0 ****  **** 
    330  MOH           2282 ****               0 ****  **** 
    331  MOH           2288 ****               0 ****  **** 
    332  MOH           2294 ****               0 ****  **** 
    333  MOH           2300 ****               0 ****  **** 
    334  MOH           2306 ****               0 ****  **** 
    335  MOH           2312 ****               0 ****  **** 
    336  MOH           2318 ****               0 ****  **** 
    337  MOH           2324 ****               0 ****  **** 
    338  MOH           2330 ****               0 ****  **** 
    339  MOH           2336 ****               0 ****  **** 
    340  MOH           2342 ****               0 ****  **** 
    341  MOH           2348 ****               0 ****  **** 
    342  MOH           2354 ****               0 ****  **** 
    343  MOH           2360 ****               0 ****  **** 
    344  MOH           2366 ****               0 ****  **** 
    345  MOH           2372 ****               0 ****  **** 
    346  MOH           2378 ****               0 ****  **** 
    347  MOH           2384 ****               0 ****  **** 
    348  MOH           2390 ****               0 ****  **** 
    349  MOH           2396 ****               0 ****  **** 
    350  MOH           2402 ****               0 ****  **** 
    351  MOH           2408 ****               0 ****  **** 
    352  MOH           2414 ****               0 ****  **** 
    353  MOH           2420 ****               0 ****  **** 
    354  MOH           2426 ****               0 ****  **** 
    355  MOH           2432 ****               0 ****  **** 
    356  MOH           2438 ****               0 ****  **** 
    357  MOH           2444 ****               0 ****  **** 
    358  MOH           2450 ****               0 ****  **** 
    359  MOH           2456 ****               0 ****  **** 
    360  MOH           2462 ****               0 ****  **** 
    361  MOH           2468 ****               0 ****  **** 
    362  MOH           2474 ****               0 ****  **** 
    363  MOH           2480 ****               0 ****  **** 
    364  MOH           2486 ****               0 ****  **** 
    365  MOH           2492 ****               0 ****  **** 
    366  MOH           2498 ****               0 ****  **** 
    367  MOH           2504 ****               0 ****  **** 
    368  MOH           2510 ****               0 ****  **** 
    369  MOH           2516 ****               0 ****  **** 
    370  MOH           2522 ****               0 ****  **** 
    371  MOH           2528 ****               0 ****  **** 
    372  MOH           2534 ****               0 ****  **** 
    373  MOH           2540 ****               0 ****  **** 
    374  MOH           2546 ****               0 ****  **** 
    375  MOH           2552 ****               0 ****  **** 
    376  MOH           2558 ****               0 ****  **** 
    377  MOH           2564 ****               0 ****  **** 
    378  MOH           2570 ****               0 ****  **** 
    379  MOH           2576 ****               0 ****  **** 
    380  MOH           2582 ****               0 ****  **** 
    381  MOH           2588 ****               0 ****  **** 
    382  MOH           2594 ****               0 ****  **** 
    383  MOH           2600 ****               0 ****  **** 
    384  MOH           2606 ****               0 ****  **** 
    385  MOH           2612 ****               0 ****  **** 
    386  MOH           2618 ****               0 ****  **** 
    387  MOH           2624 ****               0 ****  **** 
    388  MOH           2630 ****               0 ****  **** 
    389  MOH           2636 ****               0 ****  **** 
    390  MOH           2642 ****               0 ****  **** 
    391  MOH           2648 ****               0 ****  **** 
    392  MOH           2654 ****               0 ****  **** 
    393  MOH           2660 ****               0 ****  **** 
    394  MOH           2666 ****               0 ****  **** 
    395  MOH           2672 ****               0 ****  **** 
    396  MOH           2678 ****               0 ****  **** 
    397  MOH           2684 ****               0 ****  **** 
    398  MOH           2690 ****               0 ****  **** 
    399  MOH           2696 ****               0 ****  **** 
    400  MOH           2702 ****               0 ****  **** 
    401  MOH           2708 ****               0 ****  **** 
    402  MOH           2714 ****               0 ****  **** 
    403  MOH           2720 ****               0 ****  **** 
    404  MOH           2726 ****               0 ****  **** 
    405  MOH           2732 ****               0 ****  **** 
    406  MOH           2738 ****               0 ****  **** 
    407  MOH           2744 ****               0 ****  **** 
    408  MOH           2750 ****               0 ****  **** 
    409  MOH           2756 ****               0 ****  **** 
    410  MOH           2762 ****               0 ****  **** 
    411  MOH           2768 ****               0 ****  **** 
    412  MOH           2774 ****               0 ****  **** 
    413  MOH           2780 ****               0 ****  **** 
    414  MOH           2786 ****               0 ****  **** 
    415  MOH           2792 ****               0 ****  **** 
    416  MOH           2798 ****               0 ****  **** 
    417  MOH           2804 ****               0 ****  **** 
    418  MOH           2810 ****               0 ****  **** 
    419  MOH           2816 ****               0 ****  **** 
    420  MOH           2822 ****               0 ****  **** 
    421  MOH           2828 ****               0 ****  **** 
    422  MOH           2834 ****               0 ****  **** 
    423  MOH           2840 ****               0 ****  **** 
    424  MOH           2846 ****               0 ****  **** 
    425  MOH           2852 ****               0 ****  **** 
    426  MOH           2858 ****               0 ****  **** 
    427  MOH           2864 ****               0 ****  **** 
    428  MOH           2870 ****               0 ****  **** 
    429  MOH           2876 ****               0 ****  **** 
    430  MOH           2882 ****               0 ****  **** 
    431  MOH           2888 ****               0 ****  **** 
    432  MOH           2894 ****               0 ****  **** 
    433  MOH           2900 ****               0 ****  **** 
    434  MOH           2906 ****               0 ****  **** 
    435  MOH           2912 ****               0 ****  **** 
    436  MOH           2918 ****               0 ****  **** 
    437  MOH           2924 ****               0 ****  **** 
    438  MOH           2930 ****               0 ****  **** 
    439  MOH           2936 ****               0 ****  **** 
    440  MOH           2942 ****               0 ****  **** 
    441  MOH           2948 ****               0 ****  **** 
    442  MOH           2954 ****               0 ****  **** 
    443  MOH           2960 ****               0 ****  **** 
    444  MOH           2966 ****               0 ****  **** 
    445  MOH           2972 ****               0 ****  **** 
    446  MOH           2978 ****               0 ****  **** 
    447  MOH           2984 ****               0 ****  **** 
    448  MOH           2990 ****               0 ****  **** 
    449  MOH           2996 ****               0 ****  **** 
    450  MOH           3002 ****               0 ****  **** 
    451  MOH           3008 ****               0 ****  **** 
    452  MOH           3014 ****               0 ****  **** 
    453  MOH           3020 ****               0 ****  **** 
    454  MOH           3026 ****               0 ****  **** 
    455  MOH           3032 ****               0 ****  **** 
    456  MOH           3038 ****               0 ****  **** 
    457  MOH           3044 ****               0 ****  **** 
    458  MOH           3050 ****               0 ****  **** 
    459  MOH           3056 ****               0 ****  **** 
    460  MOH           3062 ****               0 ****  **** 
    461  MOH           3068 ****               0 ****  **** 
    462  MOH           3074 ****               0 ****  **** 
    463  MOH           3080 ****               0 ****  **** 
    464  MOH           3086 ****               0 ****  **** 
    465  MOH           3092 ****               0 ****  **** 
    466  MOH           3098 ****               0 ****  **** 
    467  MOH           3104 ****               0 ****  **** 
    468  MOH           3110 ****               0 ****  **** 
    469  MOH           3116 ****               0 ****  **** 
    470  MOH           3122 ****               0 ****  **** 
    471  MOH           3128 ****               0 ****  **** 
    472  MOH           3134 ****               0 ****  **** 
    473  MOH           3140 ****               0 ****  **** 
    474  MOH           3146 ****               0 ****  **** 
    475  MOH           3152 ****               0 ****  **** 
    476  MOH           3158 ****               0 ****  **** 
    477  MOH           3164 ****               0 ****  **** 
    478  MOH           3170 ****               0 ****  **** 
    479  MOH           3176 ****               0 ****  **** 
    480  MOH           3182 ****               0 ****  **** 
    481  MOH           3188 ****               0 ****  **** 
    482  MOH           3194 ****               0 ****  **** 
    483  MOH           3200 ****               0 ****  **** 
    484  MOH           3206 ****               0 ****  **** 
    485  MOH           3212 ****               0 ****  **** 
    486  MOH           3218 ****               0 ****  **** 
    487  MOH           3224 ****               0 ****  **** 
    488  MOH           3230 ****               0 ****  **** 
    489  MOH           3236 ****               0 ****  **** 
    490  MOH           3242 ****               0 ****  **** 
    491  MOH           3248 ****               0 ****  **** 
    492  MOH           3254 ****               0 ****  **** 
    493  MOH           3260 ****               0 ****  **** 
    494  MOH           3266 ****               0 ****  **** 
    495  MOH           3272 ****               0 ****  **** 
    496  MOH           3278 ****               0 ****  **** 
    497  MOH           3284 ****               0 ****  **** 
    498  MOH           3290 ****               0 ****  **** 
    499  MOH           3296 ****               0 ****  **** 
    500  MOH           3302 ****               0 ****  **** 
    501  MOH           3308 ****               0 ****  **** 
    502  MOH           3314 ****               0 ****  **** 
    503  MOH           3320 ****               0 ****  **** 
    504  MOH           3326 ****               0 ****  **** 
    505  MOH           3332 ****               0 ****  **** 
    506  MOH           3338 ****               0 ****  **** 
    507  MOH           3344 ****               0 ****  **** 
    508  MOH           3350 ****               0 ****  **** 
    509  MOH           3356 ****               0 ****  **** 
    510  MOH           3362 ****               0 ****  **** 
    511  MOH           3368 ****               0 ****  **** 
    512  MOH           3374 ****               0 ****  **** 
    513  MOH           3380 ****               0 ****  **** 
    514  MOH           3386 ****               0 ****  **** 
    515  MOH           3392 ****               0 ****  **** 
    516  MOH           3398 ****               0 ****  **** 
    517  MOH           3404 ****               0 ****  **** 
    518  MOH           3410 ****               0 ****  **** 
    519  MOH           3416 ****               0 ****  **** 
    520  MOH           3422 ****               0 ****  **** 
    521  MOH           3428 ****               0 ****  **** 
    522  MOH           3434 ****               0 ****  **** 
    523  MOH           3440 ****               0 ****  **** 
    524  MOH           3446 ****               0 ****  **** 
    525  MOH           3452 ****               0 ****  **** 
    526  MOH           3458 ****               0 ****  **** 
    527  MOH           3464 ****               0 ****  **** 
    528  MOH           3470 ****               0 ****  **** 
    529  MOH           3476 ****               0 ****  **** 
    530  MOH           3482 ****               0 ****  **** 
    531  MOH           3488 ****               0 ****  **** 
    532  MOH           3494 ****               0 ****  **** 
    533  MOH           3500 ****               0 ****  **** 
    534  MOH           3506 ****               0 ****  **** 
    535  MOH           3512 ****               0 ****  **** 
    536  MOH           3518 ****               0 ****  **** 
    537  MOH           3524 ****               0 ****  **** 
    538  MOH           3530 ****               0 ****  **** 
    539  MOH           3536 ****               0 ****  **** 
    540  MOH           3542 ****               0 ****  **** 
    541  MOH           3548 ****               0 ****  **** 
    542  MOH           3554 ****               0 ****  **** 
    543  MOH           3560 ****               0 ****  **** 
    544  MOH           3566 ****               0 ****  **** 
    545  MOH           3572 ****               0 ****  **** 
    546  MOH           3578 ****               0 ****  **** 
    547  MOH           3584 ****               0 ****  **** 
    548  MOH           3590 ****               0 ****  **** 
    549  MOH           3596 ****               0 ****  **** 
    550  MOH           3602 ****               0 ****  **** 
    551  MOH           3608 ****               0 ****  **** 
    552  MOH           3614 ****               0 ****  **** 
    553  MOH           3620 ****               0 ****  **** 
    554  MOH           3626 ****               0 ****  **** 
    555  MOH           3632 ****               0 ****  **** 
    556  MOH           3638 ****               0 ****  **** 
    557  MOH           3644 ****               0 ****  **** 
    558  MOH           3650 ****               0 ****  **** 
    559  MOH           3656 ****               0 ****  **** 
    560  MOH           3662 ****               0 ****  **** 
    561  MOH           3668 ****               0 ****  **** 
    562  MOH           3674 ****               0 ****  **** 
    563  MOH           3680 ****               0 ****  **** 
    564  MOH           3686 ****               0 ****  **** 
    565  MOH           3692 ****               0 ****  **** 
    566  MOH           3698 ****               0 ****  **** 
    567  MOH           3704 ****               0 ****  **** 
    568  MOH           3710 ****               0 ****  **** 
    569  MOH           3716 ****               0 ****  **** 
    570  MOH           3722 ****               0 ****  **** 
    571  MOH           3728 ****               0 ****  **** 
    572  MOH           3734 ****               0 ****  **** 
    573  MOH           3740 ****               0 ****  **** 
    574  MOH           3746 ****               0 ****  **** 
    575  MOH           3752 ****               0 ****  **** 
    576  MOH           3758 ****               0 ****  **** 
    577  MOH           3764 ****               0 ****  **** 
    578  MOH           3770 ****               0 ****  **** 
    579  MOH           3776 ****               0 ****  **** 
    580  MOH           3782 ****               0 ****  **** 
    581  MOH           3788 ****               0 ****  **** 
    582  MOH           3794 ****               0 ****  **** 
    583  MOH           3800 ****               0 ****  **** 
    584  MOH           3806 ****               0 ****  **** 
    585  MOH           3812 ****               0 ****  **** 
    586  MOH           3818 ****               0 ****  **** 
    587  MOH           3824 ****               0 ****  **** 
    588  MOH           3830 ****               0 ****  **** 
    589  MOH           3836 ****               0 ****  **** 
    590  MOH           3842 ****               0 ****  **** 
    591  MOH           3848 ****               0 ****  **** 
    592  MOH           3854 ****               0 ****  **** 
    593  MOH           3860 ****               0 ****  **** 
    594  MOH           3866 ****               0 ****  **** 
    595  MOH           3872 ****               0 ****  **** 
    596  MOH           3878 ****               0 ****  **** 
    597  MOH           3884 ****               0 ****  **** 
    598  MOH           3890 ****               0 ****  **** 
    599  MOH           3896 ****               0 ****  **** 
    600  MOH           3902 ****               0 ****  **** 
    601  MOH           3908 ****               0 ****  **** 
    602  MOH           3914 ****               0 ****  **** 
    603  MOH           3920 ****               0 ****  **** 
    604  MOH           3926 ****               0 ****  **** 
    605  MOH           3932 ****               0 ****  **** 
    606  MOH           3938 ****               0 ****  **** 
    607  MOH           3944 ****               0 ****  **** 
    608  MOH           3950 ****               0 ****  **** 
    609  MOH           3956 ****               0 ****  **** 
    610  MOH           3962 ****               0 ****  **** 
    611  MOH           3968 ****               0 ****  **** 
    612  MOH           3974 ****               0 ****  **** 
    613  MOH           3980 ****               0 ****  **** 
    614  MOH           3986 ****               0 ****  **** 
    615  MOH           3992 ****               0 ****  **** 
    616  MOH           3998 ****               0 ****  **** 
    617  MOH           4004 ****               0 ****  **** 
    618  MOH           4010 ****               0 ****  **** 
    619  MOH           4016 ****               0 ****  **** 
    620  MOH           4022 ****               0 ****  **** 
    621  MOH           4028 ****               0 ****  **** 
    622  MOH           4034 ****               0 ****  **** 
    623  MOH           4040 ****               0 ****  **** 
    624  MOH           4046 ****               0 ****  **** 
    625  MOH           4052 ****               0 ****  **** 
    626  MOH           4058 ****               0 ****  **** 
    627  MOH           4064 ****               0 ****  **** 
    628  MOH           4070 ****               0 ****  **** 
    629  MOH           4076 ****               0 ****  **** 
    630  MOH           4082 ****               0 ****  **** 
    631  MOH           4088 ****               0 ****  **** 
    632  MOH           4094 ****               0 ****  **** 
    633  MOH           4100 ****               0 ****  **** 
    634  MOH           4106 ****               0 ****  **** 
    635  MOH           4112 ****               0 ****  **** 
    636  MOH           4118 ****               0 ****  **** 
    637  MOH           4124 ****               0 ****  **** 
    638  MOH           4130 ****               0 ****  **** 
    639  MOH           4136 ****               0 ****  **** 
    640  MOH           4142 ****               0 ****  **** 
    641  MOH           4148 ****               0 ****  **** 
    642  MOH           4154 ****               0 ****  **** 
    643  MOH           4160 ****               0 ****  **** 
    644  MOH           4166 ****               0 ****  **** 
    645  MOH           4172 ****               0 ****  **** 
    646  MOH           4178 ****               0 ****  **** 
    647  MOH           4184 ****               0 ****  **** 
    648  MOH           4190 ****               0 ****  **** 
    649  MOH           4196 ****               0 ****  **** 
    650  MOH           4202 ****               0 ****  **** 
    651  MOH           4208 ****               0 ****  **** 
    652  MOH           4214 ****               0 ****  **** 
    653  MOH           4220 ****               0 ****  **** 
    654  MOH           4226 ****               0 ****  **** 
    655  MOH           4232 ****               0 ****  **** 
    656  MOH           4238 ****               0 ****  **** 
    657  MOH           4244 ****               0 ****  **** 
    658  MOH           4250 ****               0 ****  **** 
    659  MOH           4256 ****               0 ****  **** 
    660  MOH           4262 ****               0 ****  **** 
    661  MOH           4268 ****               0 ****  **** 
    662  MOH           4274 ****               0 ****  **** 
    663  MOH           4280 ****               0 ****  **** 
    664  MOH           4286 ****               0 ****  **** 
    665  MOH           4292 ****               0 ****  **** 
    666  MOH           4298 ****               0 ****  **** 
    667  MOH           4304 ****               0 ****  **** 
    668  MOH           4310 ****               0 ****  **** 
    669  MOH           4316 ****               0 ****  **** 
    670  MOH           4322 ****               0 ****  **** 
    671  MOH           4328 ****               0 ****  **** 
    672  MOH           4334 ****               0 ****  **** 
    673  MOH           4340 ****               0 ****  **** 
    674  MOH           4346 ****               0 ****  **** 
    675  MOH           4352 ****               0 ****  **** 
    676  MOH           4358 ****               0 ****  **** 
    677  MOH           4364 ****               0 ****  **** 
    678  MOH           4370 ****               0 ****  **** 
    679  MOH           4376 ****               0 ****  **** 
    680  MOH           4382 ****               0 ****  **** 
    681  MOH           4388 ****               0 ****  **** 
    682  MOH           4394 ****               0 ****  **** 
    683  MOH           4400 ****               0 ****  **** 
    684  MOH           4406 ****               0 ****  **** 
    685  MOH           4412 ****               0 ****  **** 
    686  MOH           4418 ****               0 ****  **** 
    687  MOH           4424 ****               0 ****  **** 
    688  MOH           4430 ****               0 ****  **** 
    689  MOH           4436 ****               0 ****  **** 
    690  MOH           4442 ****               0 ****  **** 
    691  MOH           4448 ****               0 ****  **** 
    692  MOH           4454 ****               0 ****  **** 
    693  MOH           4460 ****               0 ****  **** 
    694  MOH           4466 ****               0 ****  **** 
    695  MOH           4472 ****               0 ****  **** 
    696  MOH           4478 ****               0 ****  **** 
    697  MOH           4484 ****               0 ****  **** 
    698  MOH           4490 ****               0 ****  **** 
    699  MOH           4496 ****               0 ****  **** 
    700  MOH           4502 ****               0 ****  **** 
    701  MOH           4508 ****               0 ****  **** 
    702  MOH           4514 ****               0 ****  **** 
    703  MOH           4520 ****               0 ****  **** 
    704  MOH           4526 ****               0 ****  **** 
    705  MOH           4532 ****               0 ****  **** 
    706  MOH           4538 ****               0 ****  **** 
    707  MOH           4544 ****               0 ****  **** 
    708  MOH           4550 ****               0 ****  **** 
    709  MOH           4556 ****               0 ****  **** 
    710  MOH           4562 ****               0 ****  **** 
    711  MOH           4568 ****               0 ****  **** 
    712  MOH           4574 ****               0 ****  **** 
    713  MOH           4580 ****               0 ****  **** 
    714  MOH           4586 ****               0 ****  **** 
    715  MOH           4592 ****               0 ****  **** 
    716  MOH           4598 ****               0 ****  **** 
    717  MOH           4604 ****               0 ****  **** 
    718  MOH           4610 ****               0 ****  **** 
    719  MOH           4616 ****               0 ****  **** 
    720  MOH           4622 ****               0 ****  **** 
    721  MOH           4628 ****               0 ****  **** 
    722  MOH           4634 ****               0 ****  **** 
    723  MOH           4640 ****               0 ****  **** 
    724  MOH           4646 ****               0 ****  **** 
    725  MOH           4652 ****               0 ****  **** 
    726  MOH           4658 ****               0 ****  **** 
    727  MOH           4664 ****               0 ****  **** 
    728  MOH           4670 ****               0 ****  **** 
    729  MOH           4676 ****               0 ****  **** 
    730  MOH           4682 ****               0 ****  **** 
    731  MOH           4688 ****               0 ****  **** 
    732  MOH           4694 ****               0 ****  **** 
    733  MOH           4700 ****               0 ****  **** 
    734  MOH           4706 ****               0 ****  **** 
    735  MOH           4712 ****               0 ****  **** 
    736  MOH           4718 ****               0 ****  **** 
    737  MOH           4724 ****               0 ****  **** 
    738  MOH           4730 ****               0 ****  **** 
    739  MOH           4736 ****               0 ****  **** 
    740  MOH           4742 ****               0 ****  **** 
    741  MOH           4748 ****               0 ****  **** 
    742  MOH           4754 ****               0 ****  **** 
    743  MOH           4760 ****               0 ****  **** 
    744  MOH           4766 ****               0 ****  **** 
    745  MOH           4772 ****               0 ****  **** 
    746  MOH           4778 ****               0 ****  **** 
    747  MOH           4784 ****               0 ****  **** 
    748  MOH           4790 ****               0 ****  **** 
    749  MOH           4796 ****               0 ****  **** 
    750  MOH           4802 ****               0 ****  **** 
    751  MOH           4808 ****               0 ****  **** 
    752  MOH           4814 ****               0 ****  **** 
    753  MOH           4820 ****               0 ****  **** 
    754  MOH           4826 ****               0 ****  **** 
    755  MOH           4832 ****               0 ****  **** 
    756  MOH           4838 ****               0 ****  **** 
    757  MOH           4844 ****               0 ****  **** 
    758  MOH           4850 ****               0 ****  **** 
    759  MOH           4856 ****               0 ****  **** 
    760  MOH           4862 ****               0 ****  **** 
    761  MOH           4868 ****               0 ****  **** 
    762  MOH           4874 ****               0 ****  **** 
    763  MOH           4880 ****               0 ****  **** 
    764  MOH           4886 ****               0 ****  **** 
    765  MOH           4892 ****               0 ****  **** 
    766  MOH           4898 ****               0 ****  **** 
    767  MOH           4904 ****               0 ****  **** 
    768  MOH           4910 ****               0 ****  **** 
    769  MOH           4916 ****               0 ****  **** 
    770  MOH           4922 ****               0 ****  **** 
    771  MOH           4928 ****               0 ****  **** 
    772  MOH           4934 ****               0 ****  **** 
    773  MOH           4940 ****               0 ****  **** 
    774  MOH           4946 ****               0 ****  **** 
    775  MOH           4952 ****               0 ****  **** 
    776  MOH           4958 ****               0 ****  **** 
    777  MOH           4964 ****               0 ****  **** 
    778  MOH           4970 ****               0 ****  **** 
    779  MOH           4976 ****               0 ****  **** 
    780  MOH           4982 ****               0 ****  **** 
    781  MOH           4988 ****               0 ****  **** 
    782  MOH           4994 ****               0 ****  **** 
    783  MOH           5000 ****               0 ****  **** 
    784  MOH           5006 ****               0 ****  **** 
    785  MOH           5012 ****               0 ****  **** 
    786  MOH           5018 ****               0 ****  **** 
    787  MOH           5024 ****               0 ****  **** 
    788  MOH           5030 ****               0 ****  **** 
    789  MOH           5036 ****               0 ****  **** 
    790  MOH           5042 ****               0 ****  **** 
    791  MOH           5048 ****               0 ****  **** 
    792  MOH           5054 ****               0 ****  **** 
    793  MOH           5060 ****               0 ****  **** 
    794  MOH           5066 ****               0 ****  **** 
    795  MOH           5072 ****               0 ****  **** 
    796  MOH           5078 ****               0 ****  **** 
    797  MOH           5084 ****               0 ****  **** 
    798  MOH           5090 ****               0 ****  **** 
    799  MOH           5096 ****               0 ****  **** 
    800  MOH           5102 ****               0 ****  **** 
    801  MOH           5108 ****               0 ****  **** 
    802  MOH           5114 ****               0 ****  **** 
    803  MOH           5120 ****               0 ****  **** 
    804  MOH           5126 ****               0 ****  **** 
    805  MOH           5132 ****               0 ****  **** 
    806  MOH           5138 ****               0 ****  **** 
    807  MOH           5144 ****               0 ****  **** 
    808  MOH           5150 ****               0 ****  **** 
    809  MOH           5156 ****               0 ****  **** 
    810  MOH           5162 ****               0 ****  **** 
    811  MOH           5168 ****               0 ****  **** 
    812  MOH           5174 ****               0 ****  **** 
    813  MOH           5180 ****               0 ****  **** 
    814  MOH           5186 ****               0 ****  **** 
    815  MOH           5192 ****               0 ****  **** 
    816  MOH           5198 ****               0 ****  **** 
    817  MOH           5204 ****               0 ****  **** 
    818  MOH           5210 ****               0 ****  **** 
    819  MOH           5216 ****               0 ****  **** 
    820  MOH           5222 ****               0 ****  **** 
    821  MOH           5228 ****               0 ****  **** 
    822  MOH           5234 ****               0 ****  **** 
    823  MOH           5240 ****               0 ****  **** 
    824  MOH           5246 ****               0 ****  **** 
    825  MOH           5252 ****               0 ****  **** 
    826  MOH           5258 ****               0 ****  **** 
    827  MOH           5264 ****               0 ****  **** 
    828  MOH           5270 ****               0 ****  **** 
    829  MOH           5276 ****               0 ****  **** 
    830  MOH           5282 ****               0 ****  **** 
    831  MOH           5288 ****               0 ****  **** 
    832  MOH           5294 ****               0 ****  **** 
    833  MOH           5300 ****               0 ****  **** 
    834  MOH           5306 ****               0 ****  **** 
    835  MOH           5312 ****               0 ****  **** 
    836  MOH           5318 ****               0 ****  **** 
    837  MOH           5324 ****               0 ****  **** 
    838  MOH           5330 ****               0 ****  **** 
    839  MOH           5336 ****               0 ****  **** 
    840  MOH           5342 ****               0 ****  **** 
    841  MOH           5348 ****               0 ****  **** 
    842  MOH           5354 ****               0 ****  **** 
    843  MOH           5360 ****               0 ****  **** 
    844  MOH           5366 ****               0 ****  **** 
    845  MOH           5372 ****               0 ****  **** 
    846  MOH           5378 ****               0 ****  **** 
    847  MOH           5384 ****               0 ****  **** 
    848  MOH           5390 ****               0 ****  **** 
    849  MOH           5396 ****               0 ****  **** 
    850  MOH           5402 ****               0 ****  **** 
    851  MOH           5408 ****               0 ****  **** 
    852  MOH           5414 ****               0 ****  **** 
    853  MOH           5420 ****               0 ****  **** 
    854  MOH           5426 ****               0 ****  **** 
    855  MOH           5432 ****               0 ****  **** 
    856  MOH           5438 ****               0 ****  **** 
    857  MOH           5444 ****               0 ****  **** 
    858  MOH           5450 ****               0 ****  **** 
    859  MOH           5456 ****               0 ****  **** 
    860  MOH           5462 ****               0 ****  **** 
    861  MOH           5468 ****               0 ****  **** 
    862  MOH           5474 ****               0 ****  **** 
    863  MOH           5480 ****               0 ****  **** 
    864  MOH           5486 ****               0 ****  **** 
    865  MOH           5492 ****               0 ****  **** 
    866  MOH           5498 ****               0 ****  **** 
    867  MOH           5504 ****               0 ****  **** 
    868  MOH           5510 ****               0 ****  **** 
    869  MOH           5516 ****               0 ****  **** 
    870  MOH           5522 ****               0 ****  **** 
    871  MOH           5528 ****               0 ****  **** 
    872  MOH           5534 ****               0 ****  **** 
    873  MOH           5540 ****               0 ****  **** 
    874  MOH           5546 ****               0 ****  **** 
    875  MOH           5552 ****               0 ****  **** 
    876  MOH           5558 ****               0 ****  **** 
    877  MOH           5564 ****               0 ****  **** 
    878  MOH           5570 ****               0 ****  **** 
    879  MOH           5576 ****               0 ****  **** 
    880  MOH           5582 ****               0 ****  **** 
    881  MOH           5588 ****               0 ****  **** 
    882  MOH           5594 ****               0 ****  **** 
    883  MOH           5600 ****               0 ****  **** 
    884  MOH           5606 ****               0 ****  **** 
    885  MOH           5612 ****               0 ****  **** 
    886  MOH           5618 ****               0 ****  **** 
    887  MOH           5624 ****               0 ****  **** 
    888  MOH           5630 ****               0 ****  **** 
    889  MOH           5636 ****               0 ****  **** 
    890  MOH           5642 ****               0 ****  **** 
    891  MOH           5648 ****               0 ****  **** 
    892  MOH           5654 ****               0 ****  **** 
    893  MOH           5660 ****               0 ****  **** 
    894  MOH           5666 ****               0 ****  **** 
    895  MOH           5672 ****               0 ****  **** 
    896  MOH           5678 ****               0 ****  **** 
    897  MOH           5684 ****               0 ****  **** 
    898  MOH           5690 ****               0 ****  **** 
    899  MOH           5696 ****               0 ****  **** 
    900  MOH           5702 ****               0 ****  **** 
    901  MOH           5708 ****               0 ****  **** 
    902  MOH           5714 ****               0 ****  **** 
    903  MOH           5720 ****               0 ****  **** 
    904  MOH           5726 ****               0 ****  **** 
    905  MOH           5732 ****               0 ****  **** 
    906  MOH           5738 ****               0 ****  **** 
    907  MOH           5744 ****               0 ****  **** 
    908  MOH           5750 ****               0 ****  **** 
    909  MOH           5756 ****               0 ****  **** 
    910  MOH           5762 ****               0 ****  **** 
    911  MOH           5768 ****               0 ****  **** 
    912  MOH           5774 ****               0 ****  **** 
    913  MOH           5780 ****               0 ****  **** 
    914  MOH           5786 ****               0 ****  **** 
    915  MOH           5792 ****               0 ****  **** 
    916  MOH           5798 ****               0 ****  **** 
    917  MOH           5804 ****               0 ****  **** 
    918  MOH           5810 ****               0 ****  **** 
    919  MOH           5816 ****               0 ****  **** 
    920  MOH           5822 ****               0 ****  **** 
    921  MOH           5828 ****               0 ****  **** 
    922  MOH           5834 ****               0 ****  **** 
    923  MOH           5840 ****               0 ****  **** 
    924  MOH           5846 ****               0 ****  **** 
    925  MOH           5852 ****               0 ****  **** 
    926  MOH           5858 ****               0 ****  **** 
    927  MOH           5864 ****               0 ****  **** 
    928  MOH           5870 ****               0 ****  **** 
    929  MOH           5876 ****               0 ****  **** 
    930  MOH           5882 ****               0 ****  **** 
    931  MOH           5888 ****               0 ****  **** 
    932  MOH           5894 ****               0 ****  **** 
    933  MOH           5900 ****               0 ****  **** 
    934  MOH           5906 ****               0 ****  **** 
    935  MOH           5912 ****               0 ****  **** 
    936  MOH           5918 ****               0 ****  **** 
    937  MOH           5924 ****               0 ****  **** 
    938  MOH           5930 ****               0 ****  **** 
    939  MOH           5936 ****               0 ****  **** 
    940  MOH           5942 ****               0 ****  **** 
    941  MOH           5948 ****               0 ****  **** 
    942  MOH           5954 ****               0 ****  **** 
    943  MOH           5960 ****               0 ****  **** 
    944  MOH           5966 ****               0 ****  **** 
    945  MOH           5972 ****               0 ****  **** 
    946  MOH           5978 ****               0 ****  **** 
    947  MOH           5984 ****               0 ****  **** 
    948  MOH           5990 ****               0 ****  **** 
    949  MOH           5996 ****               0 ****  **** 
    950  MOH           6002 ****               0 ****  **** 
    951  MOH           6008 ****               0 ****  **** 
    952  MOH           6014 ****               0 ****  **** 
    953  MOH           6020 ****               0 ****  **** 
    954  MOH           6026 ****               0 ****  **** 
    955  MOH           6032 ****               0 ****  **** 
    956  MOH           6038 ****               0 ****  **** 
    957  MOH           6044 ****               0 ****  **** 
    958  MOH           6050 ****               0 ****  **** 
    959  MOH           6056 ****               0 ****  **** 
    960  MOH           6062 ****               0 ****  **** 
    961  MOH           6068 ****               0 ****  **** 
    962  MOH           6074 ****               0 ****  **** 
    963  MOH           6080 ****               0 ****  **** 
    964  MOH           6086 ****               0 ****  **** 
    965  MOH           6092 ****               0 ****  **** 
    966  MOH           6098 ****               0 ****  **** 
    967  MOH           6104 ****               0 ****  **** 
    968  MOH           6110 ****               0 ****  **** 
    969  MOH           6116 ****               0 ****  **** 
    970  MOH           6122 ****               0 ****  **** 
    971  MOH           6128 ****               0 ****  **** 
    972  MOH           6134 ****               0 ****  **** 
    973  MOH           6140 ****               0 ****  **** 
    974  MOH           6146 ****               0 ****  **** 
    975  MOH           6152 ****               0 ****  **** 
    976  MOH           6158 ****               0 ****  **** 
    977  MOH           6164 ****               0 ****  **** 
    978  MOH           6170 ****               0 ****  **** 
    979  MOH           6176 ****               0 ****  **** 
    980  MOH           6182 ****               0 ****  **** 
    981  MOH           6188 ****               0 ****  **** 
    982  MOH           6194 ****               0 ****  **** 
    983  MOH           6200 ****               0 ****  **** 
    984  MOH           6206 ****               0 ****  **** 
    985  MOH           6212 ****               0 ****  **** 
    986  MOH           6218 ****               0 ****  **** 
    987  MOH           6224 ****               0 ****  **** 
    988  MOH           6230 ****               0 ****  **** 
    989  MOH           6236 ****               0 ****  **** 
    990  MOH           6242 ****               0 ****  **** 
    991  MOH           6248 ****               0 ****  **** 
    992  MOH           6254 ****               0 ****  **** 
    993  MOH           6260 ****               0 ****  **** 
    994  MOH           6266 ****               0 ****  **** 
    995  MOH           6272 ****               0 ****  **** 
    996  MOH           6278 ****               0 ****  **** 
    997  MOH           6284 ****               0 ****  **** 
    998  MOH           6290 ****               0 ****  **** 
    999  MOH           6296 ****               0 ****  **** 
   1000  MOH           6302 ****               0 ****  **** 
   1001  MOH           6308 ****               0 ****  **** 
   1002  MOH           6314 ****               0 ****  **** 
   1003  MOH           6320 ****               0 ****  **** 
   1004  MOH           6326 ****               0 ****  **** 
   1005  MOH           6332 ****               0 ****  **** 
   1006  MOH           6338 ****               0 ****  **** 
   1007  MOH           6344 ****               0 ****  **** 
   1008  MOH           6350 ****               0 ****  **** 
   1009  MOH           6356 ****               0 ****  **** 
   1010  MOH           6362 ****               0 ****  **** 
   1011  MOH           6368 ****               0 ****  **** 
   1012  MOH           6374 ****               0 ****  **** 
   1013  MOH           6380 ****               0 ****  **** 
   1014  MOH           6386 ****               0 ****  **** 
   1015  MOH           6392 ****               0 ****  **** 
   1016  MOH           6398 ****               0 ****  **** 
   1017  MOH           6404 ****               0 ****  **** 
   1018  MOH           6410 ****               0 ****  **** 
   1019  MOH           6416 ****               0 ****  **** 
   1020  MOH           6422 ****               0 ****  **** 
   1021  MOH           6428 ****               0 ****  **** 
   1022  MOH           6434 ****               0 ****  **** 
   1023  MOH           6440 ****               0 ****  **** 
   1024  MOH           6446 ****               0 ****  **** 
   1025  MOH           6452 ****               0 ****  **** 
   1026  MOH           6458 ****               0 ****  **** 
   1027  MOH           6464 ****               0 ****  **** 
   1028  MOH           6470 ****               0 ****  **** 
   1029  MOH           6476 ****               0 ****  **** 
   1030  MOH           6482 ****               0 ****  **** 
   1031  MOH           6488 ****               0 ****  **** 
   1032  MOH           6494 ****               0 ****  **** 
   1033  MOH           6500 ****               0 ****  **** 
   1034  MOH           6506 ****               0 ****  **** 
   1035  MOH           6512 ****               0 ****  **** 
   1036  MOH           6518 ****               0 ****  **** 
   1037  MOH           6524 ****               0 ****  **** 
   1038  MOH           6530 ****               0 ****  **** 
   1039  MOH           6536 ****               0 ****  **** 
   1040  MOH           6542 ****               0 ****  **** 
   1041  MOH           6548 ****               0 ****  **** 
   1042  MOH           6554 ****               0 ****  **** 
   1043  MOH           6560 ****               0 ****  **** 
   1044  MOH           6566 ****               0 ****  **** 
   1045  MOH           6572 ****               0 ****  **** 
   1046  MOH           6578 ****               0 ****  **** 
   1047  MOH           6584 ****               0 ****  **** 
   1048  MOH           6590 ****               0 ****  **** 
   1049  MOH           6596 ****               0 ****  **** 
   1050  MOH           6602 ****               0 ****  **** 
   1051  MOH           6608 ****               0 ****  **** 
   1052  MOH           6614 ****               0 ****  **** 
   1053  MOH           6620 ****               0 ****  **** 
   1054  MOH           6626 ****               0 ****  **** 
   1055  MOH           6632 ****               0 ****  **** 
   1056  MOH           6638 ****               0 ****  **** 
   1057  MOH           6644 ****               0 ****  **** 
   1058  MOH           6650 ****               0 ****  **** 
   1059  MOH           6656 ****               0 ****  **** 
   1060  MOH           6662 ****               0 ****  **** 
   1061  MOH           6668 ****               0 ****  **** 
   1062  MOH           6674 ****               0 ****  **** 
   1063  MOH           6680 ****               0 ****  **** 
   1064  MOH           6686 ****               0 ****  **** 
   1065  MOH           6692 ****               0 ****  **** 
   1066  MOH           6698 ****               0 ****  **** 
   1067  MOH           6704 ****               0 ****  **** 
   1068  MOH           6710 ****               0 ****  **** 
   1069  MOH           6716 ****               0 ****  **** 
   1070  MOH           6722 ****               0 ****  **** 
   1071  MOH           6728 ****               0 ****  **** 
   1072  MOH           6734 ****               0 ****  **** 
   1073  MOH           6740 ****               0 ****  **** 
   1074  MOH           6746 ****               0 ****  **** 
   1075  MOH           6752 ****               0 ****  **** 
   1076  MOH           6758 ****               0 ****  **** 
   1077  MOH           6764 ****               0 ****  **** 
   1078  MOH           6770 ****               0 ****  **** 
   1079  MOH           6776 ****               0 ****  **** 
   1080  MOH           6782 ****               0 ****  **** 
   1081  MOH           6788 ****               0 ****  **** 
   1082  MOH           6794 ****               0 ****  **** 
   1083  MOH           6800 ****               0 ****  **** 
   1084  MOH           6806 ****               0 ****  **** 
   1085  MOH           6812 ****               0 ****  **** 
   1086  MOH           6818 ****               0 ****  **** 
   1087  MOH           6824 ****               0 ****  **** 
   1088  MOH           6830 ****               0 ****  **** 
   1089  MOH           6836 ****               0 ****  **** 
   1090  MOH           6842 ****               0 ****  **** 
   1091  MOH           6848 ****               0 ****  **** 
   1092  MOH           6854 ****               0 ****  **** 
   1093  MOH           6860 ****               0 ****  **** 
   1094  MOH           6866 ****               0 ****  **** 
   1095  MOH           6872 ****               0 ****  **** 
   1096  MOH           6878 ****               0 ****  **** 
   1097  MOH           6884 ****               0 ****  **** 
   1098  MOH           6890 ****               0 ****  **** 
   1099  MOH           6896 ****               0 ****  **** 
   1100  MOH           6902 ****               0 ****  **** 
   1101  MOH           6908 ****               0 ****  **** 
   1102  MOH           6914 ****               0 ****  **** 
   1103  MOH           6920 ****               0 ****  **** 
   1104  MOH           6926 ****               0 ****  **** 
   1105  MOH           6932 ****               0 ****  **** 
   1106  MOH           6938 ****               0 ****  **** 
   1107  MOH           6944 ****               0 ****  **** 
   1108  MOH           6950 ****               0 ****  **** 
   1109  MOH           6956 ****               0 ****  **** 
   1110  MOH           6962 ****               0 ****  **** 
   1111  MOH           6968 ****               0 ****  **** 
   1112  MOH           6974 ****               0 ****  **** 
   1113  MOH           6980 ****               0 ****  **** 
   1114  MOH           6986 ****               0 ****  **** 
   1115  MOH           6992 ****               0 ****  **** 
   1116  MOH           6998 ****               0 ****  **** 
   1117  MOH           7004 ****               0 ****  **** 
   1118  MOH           7010 ****               0 ****  **** 
   1119  MOH           7016 ****               0 ****  **** 
   1120  MOH           7022 ****               0 ****  **** 
   1121  MOH           7028 ****               0 ****  **** 
   1122  MOH           7034 ****               0 ****  **** 
   1123  MOH           7040 ****               0 ****  **** 
   1124  MOH           7046 ****               0 ****  **** 
   1125  MOH           7052 ****               0 ****  **** 
   1126  MOH           7058 ****               0 ****  **** 
   1127  MOH           7064 ****               0 ****  **** 
   1128  MOH           7070 ****               0 ****  **** 
   1129  MOH           7076 ****               0 ****  **** 
   1130  MOH           7082 ****               0 ****  **** 
   1131  MOH           7088 ****               0 ****  **** 
   1132  MOH           7094 ****               0 ****  **** 
   1133  MOH           7100 ****               0 ****  **** 
   1134  MOH           7106 ****               0 ****  **** 
   1135  MOH           7112 ****               0 ****  **** 
   1136  MOH           7118 ****               0 ****  **** 
   1137  MOH           7124 ****               0 ****  **** 
   1138  MOH           7130 ****               0 ****  **** 
   1139  MOH           7136 ****               0 ****  **** 
   1140  MOH           7142 ****               0 ****  **** 
   1141  MOH           7148 ****               0 ****  **** 
   1142  MOH           7154 ****               0 ****  **** 
   1143  MOH           7160 ****               0 ****  **** 
   1144  MOH           7166 ****               0 ****  **** 
   1145  MOH           7172 ****               0 ****  **** 
   1146  MOH           7178 ****               0 ****  **** 
   1147  MOH           7184 ****               0 ****  **** 
   1148  MOH           7190 ****               0 ****  **** 
   1149  MOH           7196 ****               0 ****  **** 
   1150  MOH           7202 ****               0 ****  **** 
   1151  MOH           7208 ****               0 ****  **** 
   1152  MOH           7214 ****               0 ****  **** 
   1153  MOH           7220 ****               0 ****  **** 
   1154  MOH           7226 ****               0 ****  **** 
   1155  MOH           7232 ****               0 ****  **** 
   1156  MOH           7238 ****               0 ****  **** 
   1157  MOH           7244 ****               0 ****  **** 
   1158  MOH           7250 ****               0 ****  **** 
   1159  MOH           7256 ****               0 ****  **** 
   1160  MOH           7262 ****               0 ****  **** 
   1161  MOH           7268 ****               0 ****  **** 
   1162  MOH           7274 ****               0 ****  **** 
   1163  MOH           7280 ****               0 ****  **** 
   1164  MOH           7286 ****               0 ****  **** 
   1165  MOH           7292 ****               0 ****  **** 
   1166  MOH           7298 ****               0 ****  **** 
   1167  MOH           7304 ****               0 ****  **** 
   1168  MOH           7310 ****               0 ****  **** 
   1169  MOH           7316 ****               0 ****  **** 
   1170  MOH           7322 ****               0 ****  **** 
   1171  MOH           7328 ****               0 ****  **** 
   1172  MOH           7334 ****               0 ****  **** 
   1173  MOH           7340 ****               0 ****  **** 
   1174  MOH           7346 ****               0 ****  **** 
   1175  MOH           7352 ****               0 ****  **** 
   1176  MOH           7358 ****               0 ****  **** 
   1177  MOH           7364 ****               0 ****  **** 
   1178  MOH           7370 ****               0 ****  **** 
   1179  MOH           7376 ****               0 ****  **** 
   1180  MOH           7382 ****               0 ****  **** 
   1181  MOH           7388 ****               0 ****  **** 
   1182  MOH           7394 ****               0 ****  **** 
   1183  MOH           7400 ****               0 ****  **** 
   1184  MOH           7406 ****               0 ****  **** 
   1185  MOH           7412 ****               0 ****  **** 
   1186  MOH           7418 ****               0 ****  **** 
   1187  MOH           7424 ****               0 ****  **** 
   1188  MOH           7430 ****               0 ****  **** 
   1189  MOH           7436 ****               0 ****  **** 
   1190  MOH           7442 ****               0 ****  **** 
   1191  MOH           7448 ****               0 ****  **** 
   1192  MOH           7454 ****               0 ****  **** 
   1193  MOH           7460 ****               0 ****  **** 
   1194  MOH           7466 ****               0 ****  **** 
   1195  MOH           7472 ****               0 ****  **** 
   1196  MOH           7478 ****               0 ****  **** 
   1197  MOH           7484 ****               0 ****  **** 
   1198  MOH           7490 ****               0 ****  **** 
   1199  MOH           7496 ****               0 ****  **** 
   1200  MOH           7502 ****               0 ****  **** 
   1201  MOH           7508 ****               0 ****  **** 
   1202  MOH           7514 ****               0 ****  **** 
   1203  MOH           7520 ****               0 ****  **** 
   1204  MOH           7526 ****               0 ****  **** 
   1205  MOH           7532 ****               0 ****  **** 
   1206  MOH           7538 ****               0 ****  **** 
   1207  MOH           7544 ****               0 ****  **** 
   1208  MOH           7550 ****               0 ****  **** 
   1209  MOH           7556 ****               0 ****  **** 
   1210  MOH           7562 ****               0 ****  **** 
   1211  MOH           7568 ****               0 ****  **** 
   1212  MOH           7574 ****               0 ****  **** 
   1213  MOH           7580 ****               0 ****  **** 
   1214  MOH           7586 ****               0 ****  **** 
   1215  MOH           7592 ****               0 ****  **** 
   1216  MOH           7598 ****               0 ****  **** 
   1217  MOH           7604 ****               0 ****  **** 
   1218  MOH           7610 ****               0 ****  **** 
   1219  MOH           7616 ****               0 ****  **** 
   1220  MOH           7622 ****               0 ****  **** 
   1221  MOH           7628 ****               0 ****  **** 
   1222  MOH           7634 ****               0 ****  **** 
   1223  MOH           7640 ****               0 ****  **** 
   1224  MOH           7646 ****               0 ****  **** 
   1225  MOH           7652 ****               0 ****  **** 
   1226  MOH           7658 ****               0 ****  **** 
   1227  MOH           7664 ****               0 ****  **** 
   1228  MOH           7670 ****               0 ****  **** 
   1229  MOH           7676 ****               0 ****  **** 
   1230  MOH           7682 ****               0 ****  **** 
   1231  MOH           7688 ****               0 ****  **** 
   1232  MOH           7694 ****               0 ****  **** 
   1233  MOH           7700 ****               0 ****  **** 
   1234  MOH           7706 ****               0 ****  **** 
   1235  MOH           7712 ****               0 ****  **** 
   1236  MOH           7718 ****               0 ****  **** 
   1237  MOH           7724 ****               0 ****  **** 
   1238  MOH           7730 ****               0 ****  **** 
   1239  MOH           7736 ****               0 ****  **** 
   1240  MOH           7742 ****               0 ****  **** 
   1241  MOH           7748 ****               0 ****  **** 
   1242  MOH           7754 ****               0 ****  **** 
   1243  MOH           7760 ****               0 ****  **** 
   1244  MOH           7766 ****               0 ****  **** 
   1245  MOH           7772 ****               0 ****  **** 
   1246  MOH           7778 ****               0 ****  **** 
   1247  MOH           7784 ****               0 ****  **** 
   1248  MOH           7790 ****               0 ****  **** 
   1249  MOH           7796 ****               0 ****  **** 
   1250  MOH           7802 ****               0 ****  **** 
   1251  MOH           7808 ****               0 ****  **** 
   1252  MOH           7814 ****               0 ****  **** 
   1253  MOH           7820 ****               0 ****  **** 
   1254  MOH           7826 ****               0 ****  **** 
   1255  MOH           7832 ****               0 ****  **** 
   1256  MOH           7838 ****               0 ****  **** 
   1257  MOH           7844 ****               0 ****  **** 
   1258  MOH           7850 ****               0 ****  **** 
   1259  MOH           7856 ****               0 ****  **** 
   1260  MOH           7862 ****               0 ****  **** 
   1261  MOH           7868 ****               0 ****  **** 
   1262  MOH           7874 ****               0 ****  **** 
   1263  MOH           7880 ****               0 ****  **** 
   1264  MOH           7886 ****               0 ****  **** 
   1265  MOH           7892 ****               0 ****  **** 
   1266  MOH           7898 ****               0 ****  **** 
   1267  MOH           7904 ****               0 ****  **** 
   1268  MOH           7910 ****               0 ****  **** 
   1269  MOH           7916 ****               0 ****  **** 
   1270  MOH           7922 ****               0 ****  **** 
   1271  MOH           7928 ****               0 ****  **** 
   1272  MOH           7934 ****               0 ****  **** 
   1273  MOH           7940 ****               0 ****  **** 
   1274  MOH           7946 ****               0 ****  **** 
   1275  MOH           7952 ****               0 ****  **** 
   1276  MOH           7958 ****               0 ****  **** 
   1277  MOH           7964 ****               0 ****  **** 
   1278  MOH           7970 ****               0 ****  **** 
   1279  MOH           7976 ****               0 ****  **** 
   1280  MOH           7982 ****               0 ****  **** 
   1281  MOH           7988 ****               0 ****  **** 
   1282  MOH           7994 ****               0 ****  **** 
   1283  MOH           8000 ****               0 ****  **** 
   1284  MOH           8006 ****               0 ****  **** 
   1285  MOH           8012 ****               0 ****  **** 
   1286  MOH           8018 ****               0 ****  **** 
   1287  MOH           8024 ****               0 ****  **** 
   1288  MOH           8030 ****               0 ****  **** 
   1289  MOH           8036 ****               0 ****  **** 
   1290  MOH           8042 ****               0 ****  **** 
   1291  MOH           8048 ****               0 ****  **** 
   1292  MOH           8054 ****               0 ****  **** 
   1293  MOH           8060 ****               0 ****  **** 
   1294  MOH           8066 ****               0 ****  **** 
   1295  MOH           8072 ****               0 ****  **** 
   1296  MOH           8078 ****               0 ****  **** 
   1297  MOH           8084 ****               0 ****  **** 
   1298  MOH           8090 ****               0 ****  **** 
   1299  MOH           8096 ****               0 ****  **** 
   1300  MOH           8102 ****               0 ****  **** 
   1301  MOH           8108 ****               0 ****  **** 
   1302  MOH           8114 ****               0 ****  **** 
   1303  MOH           8120 ****               0 ****  **** 
   1304  MOH           8126 ****               0 ****  **** 
   1305  MOH           8132 ****               0 ****  **** 
   1306  MOH           8138 ****               0 ****  **** 
   1307  MOH           8144 ****               0 ****  **** 
   1308  MOH           8150 ****               0 ****  **** 
   1309  MOH           8156 ****               0 ****  **** 
   1310  MOH           8162 ****               0 ****  **** 
   1311  MOH           8168 ****               0 ****  **** 
   1312  MOH           8174 ****               0 ****  **** 
   1313  MOH           8180 ****               0 ****  **** 
   1314  MOH           8186 ****               0 ****  **** 
   1315  MOH           8192 ****               0 ****  **** 
   1316  MOH           8198 ****               0 ****  **** 
   1317  MOH           8204 ****               0 ****  **** 
   1318  MOH           8210 ****               0 ****  **** 
   1319  MOH           8216 ****               0 ****  **** 
   1320  MOH           8222 ****               0 ****  **** 
   1321  MOH           8228 ****               0 ****  **** 
   1322  MOH           8234 ****               0 ****  **** 
   1323  MOH           8240 ****               0 ****  **** 
   1324  MOH           8246 ****               0 ****  **** 
   1325  MOH           8252 ****               0 ****  **** 
   1326  MOH           8258 ****               0 ****  **** 
   1327  MOH           8264 ****               0 ****  **** 
   1328  MOH           8270 ****               0 ****  **** 
   1329  MOH           8276 ****               0 ****  **** 
   1330  MOH           8282 ****               0 ****  **** 
   1331  MOH           8288 ****               0 ****  **** 
   1332  MOH           8294 ****               0 ****  **** 
   1333  MOH           8300 ****               0 ****  **** 
   1334  MOH           8306 ****               0 ****  **** 
   1335  MOH           8312 ****               0 ****  **** 
   1336  MOH           8318 ****               0 ****  **** 
   1337  MOH           8324 ****               0 ****  **** 
   1338  MOH           8330 ****               0 ****  **** 
   1339  MOH           8336 ****               0 ****  **** 
   1340  MOH           8342 ****               0 ****  **** 
   1341  MOH           8348 ****               0 ****  **** 
   1342  MOH           8354 ****               0 ****  **** 
   1343  MOH           8360 ****               0 ****  **** 
   1344  MOH           8366 ****               0 ****  **** 
   1345  MOH           8372 ****               0 ****  **** 
   1346  MOH           8378 ****               0 ****  **** 
   1347  MOH           8384 ****               0 ****  **** 
   1348  MOH           8390 ****               0 ****  **** 
   1349  MOH           8396 ****               0 ****  **** 
   1350  MOH           8402 ****               0 ****  **** 
   1351  MOH           8408 ****               0 ****  **** 
   1352  MOH           8414 ****               0 ****  **** 
   1353  MOH           8420 ****               0 ****  **** 
   1354  MOH           8426 ****               0 ****  **** 
   1355  MOH           8432 ****               0 ****  **** 
   1356  MOH           8438 ****               0 ****  **** 
   1357  MOH           8444 ****               0 ****  **** 
   1358  MOH           8450 ****               0 ****  **** 
   1359  MOH           8456 ****               0 ****  **** 
   1360  MOH           8462 ****               0 ****  **** 
   1361  MOH           8468 ****               0 ****  **** 
   1362  MOH           8474 ****               0 ****  **** 
   1363  MOH           8480 ****               0 ****  **** 
   1364  MOH           8486 ****               0 ****  **** 
   1365  MOH           8492 ****               0 ****  **** 
   1366  MOH           8498 ****               0 ****  **** 
   1367  MOH           8504 ****               0 ****  **** 
   1368  MOH           8510 ****               0 ****  **** 
   1369  MOH           8516 ****               0 ****  **** 
   1370  MOH           8522 ****               0 ****  **** 
   1371  MOH           8528 ****               0 ****  **** 
   1372  MOH           8534 ****               0 ****  **** 
   1373  MOH           8540 ****               0 ****  **** 
   1374  MOH           8546 ****               0 ****  **** 
   1375  MOH           8552 ****               0 ****  **** 
   1376  MOH           8558 ****               0 ****  **** 
   1377  MOH           8564 ****               0 ****  **** 
   1378  MOH           8570 ****               0 ****  **** 
   1379  MOH           8576 ****               0 ****  **** 
   1380  MOH           8582 ****               0 ****  **** 
   1381  MOH           8588 ****               0 ****  **** 
   1382  MOH           8594 ****               0 ****  **** 
   1383  MOH           8600 ****               0 ****  **** 
   1384  MOH           8606 ****               0 ****  **** 
   1385  MOH           8612 ****               0 ****  **** 
   1386  MOH           8618 ****               0 ****  **** 
   1387  MOH           8624 ****               0 ****  **** 
   1388  MOH           8630 ****               0 ****  **** 
   1389  MOH           8636 ****               0 ****  **** 
   1390  MOH           8642 ****               0 ****  **** 
   1391  MOH           8648 ****               0 ****  **** 
   1392  MOH           8654 ****               0 ****  **** 
   1393  MOH           8660 ****               0 ****  **** 
   1394  MOH           8666 ****               0 ****  **** 
   1395  MOH           8672 ****               0 ****  **** 
   1396  MOH           8678 ****               0 ****  **** 
   1397  MOH           8684 ****               0 ****  **** 
   1398  MOH           8690 ****               0 ****  **** 
   1399  MOH           8696 ****               0 ****  **** 
   1400  MOH           8702 ****               0 ****  **** 
   1401  MOH           8708 ****               0 ****  **** 
   1402  MOH           8714 ****               0 ****  **** 
   1403  MOH           8720 ****               0 ****  **** 
   1404  MOH           8726 ****               0 ****  **** 
   1405  MOH           8732 ****               0 ****  **** 
   1406  MOH           8738 ****               0 ****  **** 
   1407  MOH           8744 ****               0 ****  **** 
   1408  MOH           8750 ****               0 ****  **** 
   1409  MOH           8756 ****               0 ****  **** 
   1410  MOH           8762 ****               0 ****  **** 
   1411  MOH           8768 ****               0 ****  **** 
   1412  MOH           8774 ****               0 ****  **** 
   1413  MOH           8780 ****               0 ****  **** 
   1414  MOH           8786 ****               0 ****  **** 
   1415  MOH           8792 ****               0 ****  **** 
   1416  MOH           8798 ****               0 ****  **** 
   1417  MOH           8804 ****               0 ****  **** 
   1418  MOH           8810 ****               0 ****  **** 
   1419  MOH           8816 ****               0 ****  **** 
   1420  MOH           8822 ****               0 ****  **** 
   1421  MOH           8828 ****               0 ****  **** 
   1422  MOH           8834 ****               0 ****  **** 
   1423  MOH           8840 ****               0 ****  **** 
   1424  MOH           8846 ****               0 ****  **** 
   1425  MOH           8852 ****               0 ****  **** 
   1426  MOH           8858 ****               0 ****  **** 
   1427  MOH           8864 ****               0 ****  **** 
   1428  MOH           8870 ****               0 ****  **** 
   1429  MOH           8876 ****               0 ****  **** 
   1430  MOH           8882 ****               0 ****  **** 
   1431  MOH           8888 ****               0 ****  **** 
   1432  MOH           8894 ****               0 ****  **** 
   1433  MOH           8900 ****               0 ****  **** 
   1434  MOH           8906 ****               0 ****  **** 
   1435  MOH           8912 ****               0 ****  **** 
   1436  MOH           8918 ****               0 ****  **** 
   1437  MOH           8924 ****               0 ****  **** 
   1438  MOH           8930 ****               0 ****  **** 
   1439  MOH           8936 ****               0 ****  **** 
   1440  MOH           8942 ****               0 ****  **** 
   1441  MOH           8948 ****               0 ****  **** 
   1442  MOH           8954 ****               0 ****  **** 
   1443  MOH           8960 ****               0 ****  **** 
   1444  MOH           8966 ****               0 ****  **** 
   1445  MOH           8972 ****               0 ****  **** 
   1446  MOH           8978 ****               0 ****  **** 
   1447  MOH           8984 ****               0 ****  **** 
   1448  MOH           8990 ****               0 ****  **** 
   1449  MOH           8996 ****               0 ****  **** 
   1450  MOH           9002 ****               0 ****  **** 
   1451  MOH           9008 ****               0 ****  **** 
   1452  MOH           9014 ****               0 ****  **** 
   1453  MOH           9020 ****               0 ****  **** 
   1454  MOH           9026 ****               0 ****  **** 
   1455  MOH           9032 ****               0 ****  **** 
   1456  MOH           9038 ****               0 ****  **** 
   1457  MOH           9044 ****               0 ****  **** 
   1458  MOH           9050 ****               0 ****  **** 
   1459  MOH           9056 ****               0 ****  **** 
   1460  MOH           9062 ****               0 ****  **** 
   1461  MOH           9068 ****               0 ****  **** 
   1462  MOH           9074 ****               0 ****  **** 
   1463  MOH           9080 ****               0 ****  **** 
   1464  MOH           9086 ****               0 ****  **** 
   1465  MOH           9092 ****               0 ****  **** 
   1466  MOH           9098 ****               0 ****  **** 
   1467  MOH           9104 ****               0 ****  **** 
   1468  MOH           9110 ****               0 ****  **** 
   1469  MOH           9116 ****               0 ****  **** 
   1470  MOH           9122 ****               0 ****  **** 
   1471  MOH           9128 ****               0 ****  **** 
   1472  MOH           9134 ****               0 ****  **** 
   1473  MOH           9140 ****               0 ****  **** 
   1474  MOH           9146 ****               0 ****  **** 
   1475  MOH           9152 ****               0 ****  **** 
   1476  MOH           9158 ****               0 ****  **** 
   1477  MOH           9164 ****               0 ****  **** 
   1478  MOH           9170 ****               0 ****  **** 
   1479  MOH           9176 ****               0 ****  **** 
   1480  MOH           9182 ****               0 ****  **** 
   1481  MOH           9188 ****               0 ****  **** 
   1482  MOH           9194 ****               0 ****  **** 
   1483  MOH           9200 ****               0 ****  **** 
   1484  MOH           9206 ****               0 ****  **** 
   1485  MOH           9212 ****               0 ****  **** 
   1486  MOH           9218 ****               0 ****  **** 
   1487  MOH           9224 ****               0 ****  **** 
   1488  MOH           9230 ****               0 ****  **** 
   1489  MOH           9236 ****               0 ****  **** 
   1490  MOH           9242 ****               0 ****  **** 
   1491  MOH           9248 ****               0 ****  **** 
   1492  MOH           9254 ****               0 ****  **** 
   1493  MOH           9260 ****               0 ****  **** 
   1494  MOH           9266 ****               0 ****  **** 
   1495  MOH           9272 ****               0 ****  **** 
   1496  MOH           9278 ****               0 ****  **** 
   1497  MOH           9284 ****               0 ****  **** 
   1498  MOH           9290 ****               0 ****  **** 
   1499  MOH           9296 ****               0 ****  **** 
   1500  MOH           9302 ****               0 ****  **** 
   1501  MOH           9308 ****               0 ****  **** 
   1502  MOH           9314 ****               0 ****  **** 
   1503  MOH           9320 ****               0 ****  **** 
   1504  MOH           9326 ****               0 ****  **** 
   1505  MOH           9332 ****               0 ****  **** 
   1506  MOH           9338 ****               0 ****  **** 
   1507  MOH           9344 ****               0 ****  **** 
   1508  MOH           9350 ****               0 ****  **** 
   1509  MOH           9356 ****               0 ****  **** 
   1510  MOH           9362 ****               0 ****  **** 
   1511  MOH           9368 ****               0 ****  **** 
   1512  MOH           9374 ****               0 ****  **** 
   1513  MOH           9380 ****               0 ****  **** 
   1514  MOH           9386 ****               0 ****  **** 
   1515  MOH           9392 ****               0 ****  **** 
   1516  MOH           9398 ****               0 ****  **** 
   1517  MOH           9404 ****               0 ****  **** 
   1518  MOH           9410 ****               0 ****  **** 
   1519  MOH           9416 ****               0 ****  **** 
   1520  MOH           9422 ****               0 ****  **** 
   1521  MOH           9428 ****               0 ****  **** 
   1522  MOH           9434 ****               0 ****  **** 
   1523  MOH           9440 ****               0 ****  **** 
   1524  MOH           9446 ****               0 ****  **** 
   1525  MOH           9452 ****               0 ****  **** 
   1526  MOH           9458 ****               0 ****  **** 
   1527  MOH           9464 ****               0 ****  **** 
   1528  MOH           9470 ****               0 ****  **** 
   1529  MOH           9476 ****               0 ****  **** 
   1530  MOH           9482 ****               0 ****  **** 
   1531  MOH           9488 ****               0 ****  **** 
   1532  MOH           9494 ****               0 ****  **** 
   1533  MOH           9500 ****               0 ****  **** 
   1534  MOH           9506 ****               0 ****  **** 
   1535  MOH           9512 ****               0 ****  **** 
   1536  MOH           9518 ****               0 ****  **** 
   1537  MOH           9524 ****               0 ****  **** 
   1538  MOH           9530 ****               0 ****  **** 
   1539  MOH           9536 ****               0 ****  **** 
   1540  MOH           9542 ****               0 ****  **** 
   1541  MOH           9548 ****               0 ****  **** 
   1542  MOH           9554 ****               0 ****  **** 
   1543  MOH           9560 ****               0 ****  **** 
   1544  MOH           9566 ****               0 ****  **** 
   1545  MOH           9572 ****               0 ****  **** 
   1546  MOH           9578 ****               0 ****  **** 
   1547  MOH           9584 ****               0 ****  **** 
   1548  MOH           9590 ****               0 ****  **** 
   1549  MOH           9596 ****               0 ****  **** 
   1550  MOH           9602 ****               0 ****  **** 
   1551  MOH           9608 ****               0 ****  **** 
   1552  MOH           9614 ****               0 ****  **** 
   1553  MOH           9620 ****               0 ****  **** 
   1554  MOH           9626 ****               0 ****  **** 
   1555  MOH           9632 ****               0 ****  **** 
   1556  MOH           9638 ****               0 ****  **** 
   1557  MOH           9644 ****               0 ****  **** 
   1558  MOH           9650 ****               0 ****  **** 
   1559  MOH           9656 ****               0 ****  **** 
   1560  MOH           9662 ****               0 ****  **** 
   1561  MOH           9668 ****               0 ****  **** 
   1562  MOH           9674 ****               0 ****  **** 
   1563  MOH           9680 ****               0 ****  **** 
   1564  MOH           9686 ****               0 ****  **** 
   1565  MOH           9692 ****               0 ****  **** 
   1566  MOH           9698 ****               0 ****  **** 
   1567  MOH           9704 ****               0 ****  **** 
   1568  MOH           9710 ****               0 ****  **** 
   1569  MOH           9716 ****               0 ****  **** 
   1570  MOH           9722 ****               0 ****  **** 
   1571  MOH           9728 ****               0 ****  **** 
   1572  MOH           9734 ****               0 ****  **** 
   1573  MOH           9740 ****               0 ****  **** 
   1574  MOH           9746 ****               0 ****  **** 
   1575  MOH           9752 ****               0 ****  **** 
   1576  MOH           9758 ****               0 ****  **** 
   1577  MOH           9764 ****               0 ****  **** 
   1578  MOH           9770 ****               0 ****  **** 
   1579  MOH           9776 ****               0 ****  **** 
   1580  MOH           9782 ****               0 ****  **** 
   1581  MOH           9788 ****               0 ****  **** 
   1582  MOH           9794 ****               0 ****  **** 
   1583  MOH           9800 ****               0 ****  **** 
   1584  MOH           9806 ****               0 ****  **** 
   1585  MOH           9812 ****               0 ****  **** 
   1586  MOH           9818 ****               0 ****  **** 
   1587  MOH           9824 ****               0 ****  **** 
   1588  MOH           9830 ****               0 ****  **** 
   1589  MOH           9836 ****               0 ****  **** 
   1590  MOH           9842 ****               0 ****  **** 
   1591  MOH           9848 ****               0 ****  **** 
   1592  MOH           9854 ****               0 ****  **** 
   1593  MOH           9860 ****               0 ****  **** 
   1594  MOH           9866 ****               0 ****  **** 
   1595  MOH           9872 ****               0 ****  **** 
   1596  MOH           9878 ****               0 ****  **** 
   1597  MOH           9884 ****               0 ****  **** 
   1598  MOH           9890 ****               0 ****  **** 
   1599  MOH           9896 ****               0 ****  **** 
   1600  MOH           9902 ****               0 ****  **** 
   1601  MOH           9908 ****               0 ****  **** 
   1602  MOH           9914 ****               0 ****  **** 
   1603  MOH           9920 ****               0 ****  **** 
   1604  MOH           9926 ****               0 ****  **** 
   1605  MOH           9932 ****               0 ****  **** 
   1606  MOH           9938 ****               0 ****  **** 
   1607  MOH           9944 ****               0 ****  **** 
   1608  MOH           9950 ****               0 ****  **** 
   1609  MOH           9956 ****               0 ****  **** 
   1610  MOH           9962 ****               0 ****  **** 
   1611  MOH           9968 ****               0 ****  **** 
   1612  MOH           9974 ****               0 ****  **** 
   1613  MOH           9980 ****               0 ****  **** 
   1614  MOH           9986 ****               0 ****  **** 
   1615  MOH           9992 ****               0 ****  **** 
   1616  MOH           9998 ****               0 ****  **** 
   1617  MOH          10004 ****               0 ****  **** 
   1618  MOH          10010 ****               0 ****  **** 
   1619  MOH          10016 ****               0 ****  **** 
   1620  MOH          10022 ****               0 ****  **** 
   1621  MOH          10028 ****               0 ****  **** 
   1622  MOH          10034 ****               0 ****  **** 
   1623  MOH          10040 ****               0 ****  **** 
   1624  MOH          10046 ****               0 ****  **** 
   1625  MOH          10052 ****               0 ****  **** 
   1626  MOH          10058 ****               0 ****  **** 
   1627  MOH          10064 ****               0 ****  **** 
   1628  MOH          10070 ****               0 ****  **** 
   1629  MOH          10076 ****               0 ****  **** 
   1630  MOH          10082 ****               0 ****  **** 
   1631  MOH          10088 ****               0 ****  **** 
   1632  MOH          10094 ****               0 ****  **** 
   1633  MOH          10100 ****               0 ****  **** 
   1634  MOH          10106 ****               0 ****  **** 
   1635  MOH          10112 ****               0 ****  **** 
   1636  MOH          10118 ****               0 ****  **** 
   1637  MOH          10124 ****               0 ****  **** 
   1638  MOH          10130 ****               0 ****  **** 
   1639  MOH          10136 ****               0 ****  **** 
   1640  MOH          10142 ****               0 ****  **** 
   1641  MOH          10148 ****               0 ****  **** 
   1642  MOH          10154 ****               0 ****  **** 
   1643  MOH          10160 ****               0 ****  **** 
   1644  MOH          10166 ****               0 ****  **** 
   1645  MOH          10172 ****               0 ****  **** 
   1646  MOH          10178 ****               0 ****  **** 
   1647  MOH          10184 ****               0 ****  **** 
   1648  MOH          10190 ****               0 ****  **** 
   1649  MOH          10196 ****               0 ****  **** 
   1650  MOH          10202 ****               0 ****  **** 
   1651  MOH          10208 ****               0 ****  **** 
   1652  MOH          10214 ****               0 ****  **** 
   1653  MOH          10220 ****               0 ****  **** 
   1654  MOH          10226 ****               0 ****  **** 
   1655  MOH          10232 ****               0 ****  **** 
   1656  MOH          10238 ****               0 ****  **** 
   1657  MOH          10244 ****               0 ****  **** 
   1658  MOH          10250 ****               0 ****  **** 
   1659  MOH          10256 ****               0 ****  **** 
   1660  MOH          10262 ****               0 ****  **** 
   1661  MOH          10268 ****               0 ****  **** 
   1662  MOH          10274 ****               0 ****  **** 
   1663  MOH          10280 ****               0 ****  **** 
   1664  MOH          10286 ****               0 ****  **** 
   1665  MOH          10292 ****               0 ****  **** 
   1666  MOH          10298 ****               0 ****  **** 
   1667  MOH          10304 ****               0 ****  **** 
   1668  MOH          10310 ****               0 ****  **** 
   1669  MOH          10316 ****               0 ****  **** 
   1670  MOH          10322 ****               0 ****  **** 
   1671  MOH          10328 ****               0 ****  **** 
   1672  MOH          10334 ****               0 ****  **** 
   1673  MOH          10340 ****               0 ****  **** 
   1674  MOH          10346 ****               0 ****  **** 
   1675  MOH          10352 ****               0 ****  **** 
   1676  MOH          10358 ****               0 ****  **** 
   1677  MOH          10364 ****               0 ****  **** 
   1678  MOH          10370 ****               0 ****  **** 
   1679  MOH          10376 ****               0 ****  **** 
   1680  MOH          10382 ****               0 ****  **** 
   1681  MOH          10388 ****               0 ****  **** 
   1682  MOH          10394 ****               0 ****  **** 
   1683  MOH          10400 ****               0 ****  **** 
   1684  MOH          10406 ****               0 ****  **** 
   1685  MOH          10412 ****               0 ****  **** 
   1686  MOH          10418 ****               0 ****  **** 
   1687  MOH          10424 ****               0 ****  **** 
   1688  MOH          10430 ****               0 ****  **** 
   1689  MOH          10436 ****               0 ****  **** 
   1690  MOH          10442 ****               0 ****  **** 
   1691  MOH          10448 ****               0 ****  **** 
   1692  MOH          10454 ****               0 ****  **** 
   1693  MOH          10460 ****               0 ****  **** 
   1694  MOH          10466 ****               0 ****  **** 
   1695  MOH          10472 ****               0 ****  **** 
   1696  MOH          10478 ****               0 ****  **** 
   1697  MOH          10484 ****               0 ****  **** 
   1698  MOH          10490 ****               0 ****  **** 
   1699  MOH          10496 ****               0 ****  **** 
   1700  MOH          10502 ****               0 ****  **** 
   1701  MOH          10508 ****               0 ****  **** 
   1702  MOH          10514 ****               0 ****  **** 
   1703  MOH          10520 ****               0 ****  **** 
   1704  MOH          10526 ****               0 ****  **** 
   1705  MOH          10532 ****               0 ****  **** 
   1706  MOH          10538 ****               0 ****  **** 
   1707  MOH          10544 ****               0 ****  **** 
   1708  MOH          10550 ****               0 ****  **** 
   1709  MOH          10556 ****               0 ****  **** 
   1710  MOH          10562 ****               0 ****  **** 
   1711  MOH          10568 ****               0 ****  **** 
   1712  MOH          10574 ****               0 ****  **** 
   1713  MOH          10580 ****               0 ****  **** 
   1714  MOH          10586 ****               0 ****  **** 
   1715  MOH          10592 ****               0 ****  **** 
   1716  MOH          10598 ****               0 ****  **** 
   1717  MOH          10604 ****               0 ****  **** 
   1718  MOH          10610 ****               0 ****  **** 
   1719  MOH          10616 ****               0 ****  **** 
   1720  MOH          10622 ****               0 ****  **** 
   1721  MOH          10628 ****               0 ****  **** 
   1722  MOH          10634 ****               0 ****  **** 
   1723  MOH          10640 ****               0 ****  **** 
   1724  MOH          10646 ****               0 ****  **** 
   1725  MOH          10652 ****               0 ****  **** 
   1726  MOH          10658 ****               0 ****  **** 
   1727  MOH          10664 ****               0 ****  **** 
   1728  MOH          10670 ****               0 ****  **** 
   1729  MOH          10676 ****               0 ****  **** 
   1730  MOH          10682 ****               0 ****  **** 
   1731  MOH          10688 ****               0 ****  **** 
   1732  MOH          10694 ****               0 ****  **** 
   1733  MOH          10700 ****               0 ****  **** 
   1734  MOH          10706 ****               0 ****  **** 
   1735  MOH          10712 ****               0 ****  **** 
   1736  MOH          10718 ****               0 ****  **** 
   1737  MOH          10724 ****               0 ****  **** 
   1738  MOH          10730 ****               0 ****  **** 
   1739  MOH          10736 ****               0 ****  **** 
   1740  MOH          10742 ****               0 ****  **** 
   1741  MOH          10748 ****               0 ****  **** 
   1742  MOH          10754 ****               0 ****  **** 
   1743  MOH          10760 ****               0 ****  **** 
   1744  MOH          10766 ****               0 ****  **** 
   1745  MOH          10772 ****               0 ****  **** 
   1746  MOH          10778 ****               0 ****  **** 
   1747  MOH          10784 ****               0 ****  **** 
   1748  MOH          10790 ****               0 ****  **** 
   1749  MOH          10796 ****               0 ****  **** 
   1750  MOH          10802 ****               0 ****  **** 
   1751  MOH          10808 ****               0 ****  **** 
   1752  MOH          10814 ****               0 ****  **** 
   1753  MOH          10820 ****               0 ****  **** 
   1754  MOH          10826 ****               0 ****  **** 
   1755  MOH          10832 ****               0 ****  **** 
   1756  MOH          10838 ****               0 ****  **** 
   1757  MOH          10844 ****               0 ****  **** 
   1758  MOH          10850 ****               0 ****  **** 
   1759  MOH          10856 ****               0 ****  **** 
   1760  MOH          10862 ****               0 ****  **** 
   1761  MOH          10868 ****               0 ****  **** 
   1762  MOH          10874 ****               0 ****  **** 
   1763  MOH          10880 ****               0 ****  **** 
   1764  MOH          10886 ****               0 ****  **** 
   1765  MOH          10892 ****               0 ****  **** 
   1766  MOH          10898 ****               0 ****  **** 
   1767  MOH          10904 ****               0 ****  **** 
   1768  MOH          10910 ****               0 ****  **** 
   1769  MOH          10916 ****               0 ****  **** 
   1770  MOH          10922 ****               0 ****  **** 
   1771  MOH          10928 ****               0 ****  **** 
   1772  MOH          10934 ****               0 ****  **** 
   1773  MOH          10940 ****               0 ****  **** 
   1774  MOH          10946 ****               0 ****  **** 
   1775  MOH          10952 ****               0 ****  **** 
   1776  MOH          10958 ****               0 ****  **** 
   1777  MOH          10964 ****               0 ****  **** 
   1778  MOH          10970 ****               0 ****  **** 
   1779  MOH          10976 ****               0 ****  **** 
   1780  MOH          10982 ****               0 ****  **** 
   1781  MOH          10988 ****               0 ****  **** 
   1782  MOH          10994 ****               0 ****  **** 
   1783  MOH          11000 ****               0 ****  **** 
   1784  MOH          11006 ****               0 ****  **** 
   1785  MOH          11012 ****               0 ****  **** 
   1786  MOH          11018 ****               0 ****  **** 
   1787  MOH          11024 ****               0 ****  **** 
   1788  MOH          11030 ****               0 ****  **** 
   1789  MOH          11036 ****               0 ****  **** 
   1790  MOH          11042 ****               0 ****  **** 
   1791  MOH          11048 ****               0 ****  **** 
   1792  MOH          11054 ****               0 ****  **** 
   1793  MOH          11060 ****               0 ****  **** 
   1794  MOH          11066 ****               0 ****  **** 
   1795  MOH          11072 ****               0 ****  **** 
   1796  MOH          11078 ****               0 ****  **** 
   1797  MOH          11084 ****               0 ****  **** 
   1798  MOH          11090 ****               0 ****  **** 
   1799  MOH          11096 ****               0 ****  **** 
   1800  MOH          11102 ****               0 ****  **** 
   1801  MOH          11108 ****               0 ****  **** 
   1802  MOH          11114 ****               0 ****  **** 
   1803  MOH          11120 ****               0 ****  **** 
   1804  MOH          11126 ****               0 ****  **** 
   1805  MOH          11132 ****               0 ****  **** 
   1806  MOH          11138 ****               0 ****  **** 
   1807  MOH          11144 ****               0 ****  **** 
   1808  MOH          11150 ****               0 ****  **** 
   1809  MOH          11156 ****               0 ****  **** 
   1810  MOH          11162 ****               0 ****  **** 
   1811  MOH          11168 ****               0 ****  **** 
   1812  MOH          11174 ****               0 ****  **** 
   1813  MOH          11180 ****               0 ****  **** 
   1814  MOH          11186 ****               0 ****  **** 
   1815  MOH          11192 ****               0 ****  **** 
   1816  MOH          11198 ****               0 ****  **** 
   1817  MOH          11204 ****               0 ****  **** 
   1818  MOH          11210 ****               0 ****  **** 
   1819  MOH          11216 ****               0 ****  **** 
   1820  MOH          11222 ****               0 ****  **** 
   1821  MOH          11228 ****               0 ****  **** 
   1822  MOH          11234 ****               0 ****  **** 
   1823  MOH          11240 ****               0 ****  **** 
   1824  MOH          11246 ****               0 ****  **** 
   1825  MOH          11252 ****               0 ****  **** 
   1826  MOH          11258 ****               0 ****  **** 
   1827  MOH          11264 ****               0 ****  **** 
   1828  MOH          11270 ****               0 ****  **** 
   1829  MOH          11276 ****               0 ****  **** 
   1830  MOH          11282 ****               0 ****  **** 
   1831  MOH          11288 ****               0 ****  **** 
   1832  MOH          11294 ****               0 ****  **** 
   1833  MOH          11300 ****               0 ****  **** 
   1834  MOH          11306 ****               0 ****  **** 
   1835  MOH          11312 ****               0 ****  **** 
   1836  MOH          11318 ****               0 ****  **** 
   1837  MOH          11324 ****               0 ****  **** 
   1838  MOH          11330 ****               0 ****  **** 
   1839  MOH          11336 ****               0 ****  **** 
   1840  MOH          11342 ****               0 ****  **** 
   1841  MOH          11348 ****               0 ****  **** 
   1842  MOH          11354 ****               0 ****  **** 
   1843  MOH          11360 ****               0 ****  **** 
   1844  MOH          11366 ****               0 ****  **** 
   1845  MOH          11372 ****               0 ****  **** 
   1846  MOH          11378 ****               0 ****  **** 
   1847  MOH          11384 ****               0 ****  **** 
   1848  MOH          11390 ****               0 ****  **** 
   1849  MOH          11396 ****               0 ****  **** 
   1850  MOH          11402 ****               0 ****  **** 
   1851  MOH          11408 ****               0 ****  **** 
   1852  MOH          11414 ****               0 ****  **** 
   1853  MOH          11420 ****               0 ****  **** 
   1854  MOH          11426 ****               0 ****  **** 
   1855  MOH          11432 ****               0 ****  **** 
   1856  MOH          11438 ****               0 ****  **** 
   1857  MOH          11444 ****               0 ****  **** 
   1858  MOH          11450 ****               0 ****  **** 
   1859  MOH          11456 ****               0 ****  **** 
   1860  MOH          11462 ****               0 ****  **** 
   1861  MOH          11468 ****               0 ****  **** 
   1862  MOH          11474 ****               0 ****  **** 
   1863  MOH          11480 ****               0 ****  **** 
   1864  MOH          11486 ****               0 ****  **** 
   1865  MOH          11492 ****               0 ****  **** 
   1866  MOH          11498 ****               0 ****  **** 
   1867  MOH          11504 ****               0 ****  **** 
   1868  MOH          11510 ****               0 ****  **** 
   1869  MOH          11516 ****               0 ****  **** 
   1870  MOH          11522 ****               0 ****  **** 
   1871  MOH          11528 ****               0 ****  **** 
   1872  MOH          11534 ****               0 ****  **** 
   1873  MOH          11540 ****               0 ****  **** 
   1874  MOH          11546 ****               0 ****  **** 
   1875  MOH          11552 ****               0 ****  **** 
   1876  MOH          11558 ****               0 ****  **** 
   1877  MOH          11564 ****               0 ****  **** 
   1878  MOH          11570 ****               0 ****  **** 
   1879  MOH          11576 ****               0 ****  **** 
   1880  MOH          11582 ****               0 ****  **** 
   1881  MOH          11588 ****               0 ****  **** 
   1882  MOH          11594 ****               0 ****  **** 
   1883  MOH          11600 ****               0 ****  **** 
   1884  MOH          11606 ****               0 ****  **** 
   1885  MOH          11612 ****               0 ****  **** 
   1886  MOH          11618 ****               0 ****  **** 
   1887  MOH          11624 ****               0 ****  **** 
   1888  MOH          11630 ****               0 ****  **** 
   1889  MOH          11636 ****               0 ****  **** 
   1890  MOH          11642 ****               0 ****  **** 
   1891  MOH          11648 ****               0 ****  **** 
   1892  MOH          11654 ****               0 ****  **** 
   1893  MOH          11660 ****               0 ****  **** 
   1894  MOH          11666 ****               0 ****  **** 
   1895  MOH          11672 ****               0 ****  **** 
   1896  MOH          11678 ****               0 ****  **** 
   1897  MOH          11684 ****               0 ****  **** 
   1898  MOH          11690 ****               0 ****  **** 
   1899  MOH          11696 ****               0 ****  **** 
   1900  MOH          11702 ****               0 ****  **** 
   1901  MOH          11708 ****               0 ****  **** 
   1902  MOH          11714 ****               0 ****  **** 
   1903  MOH          11720 ****               0 ****  **** 
   1904  MOH          11726 ****               0 ****  **** 
   1905  MOH          11732 ****               0 ****  **** 
   1906  MOH          11738 ****               0 ****  **** 
   1907  MOH          11744 ****               0 ****  **** 
   1908  MOH          11750 ****               0 ****  **** 
   1909  MOH          11756 ****               0 ****  **** 
   1910  MOH          11762 ****               0 ****  **** 
   1911  MOH          11768 ****               0 ****  **** 
   1912  MOH          11774 ****               0 ****  **** 
   1913  MOH          11780 ****               0 ****  **** 
   1914  MOH          11786 ****               0 ****  **** 
   1915  MOH          11792 ****               0 ****  **** 
   1916  MOH          11798 ****               0 ****  **** 
   1917  MOH          11804 ****               0 ****  **** 
   1918  MOH          11810 ****               0 ****  **** 
   1919  MOH          11816 ****               0 ****  **** 
   1920  MOH          11822 ****               0 ****  **** 
   1921  MOH          11828 ****               0 ****  **** 
   1922  MOH          11834 ****               0 ****  **** 
   1923  MOH          11840 ****               0 ****  **** 
   1924  MOH          11846 ****               0 ****  **** 
   1925  MOH          11852 ****               0 ****  **** 
   1926  MOH          11858 ****               0 ****  **** 
   1927  MOH          11864 ****               0 ****  **** 
   1928  MOH          11870 ****               0 ****  **** 
   1929  MOH          11876 ****               0 ****  **** 
   1930  MOH          11882 ****               0 ****  **** 
   1931  MOH          11888 ****               0 ****  **** 
   1932  MOH          11894 ****               0 ****  **** 
   1933  MOH          11900 ****               0 ****  **** 
   1934  MOH          11906 ****               0 ****  **** 
   1935  MOH          11912 ****               0 ****  **** 
   1936  MOH          11918 ****               0 ****  **** 
   1937  MOH          11924 ****               0 ****  **** 
   1938  MOH          11930 ****               0 ****  **** 
   1939  MOH          11936 ****               0 ****  **** 
   1940  MOH          11942 ****               0 ****  **** 
   1941  MOH          11948 ****               0 ****  **** 
   1942  MOH          11954 ****               0 ****  **** 
   1943  MOH          11960 ****               0 ****  **** 
   1944  MOH          11966 ****               0 ****  **** 
   1945  MOH          11972 ****               0 ****  **** 
   1946  MOH          11978 ****               0 ****  **** 
   1947  MOH          11984 ****               0 ****  **** 
   1948  MOH          11990 ****               0 ****  **** 
   1949  MOH          11996 ****               0 ****  **** 
   1950  MOH          12002 ****               0 ****  **** 
   1951  MOH          12008 ****               0 ****  **** 
   1952  MOH          12014 ****               0 ****  **** 
   1953  MOH          12020 ****               0 ****  **** 
   1954  MOH          12026 ****               0 ****  **** 
   1955  MOH          12032 ****               0 ****  **** 
   1956  MOH          12038 ****               0 ****  **** 
   1957  MOH          12044 ****               0 ****  **** 
   1958  MOH          12050 ****               0 ****  **** 
   1959  MOH          12056 ****               0 ****  **** 
   1960  MOH          12062 ****               0 ****  **** 
   1961  MOH          12068 ****               0 ****  **** 
   1962  MOH          12074 ****               0 ****  **** 
   1963  MOH          12080 ****               0 ****  **** 
   1964  MOH          12086 ****               0 ****  **** 
   1965  MOH          12092 ****               0 ****  **** 
   1966  MOH          12098 ****               0 ****  **** 
   1967  MOH          12104 ****               0 ****  **** 
   1968  MOH          12110 ****               0 ****  **** 
   1969  MOH          12116 ****               0 ****  **** 
   1970  MOH          12122 ****               0 ****  **** 
   1971  MOH          12128 ****               0 ****  **** 
   1972  MOH          12134 ****               0 ****  **** 
   1973  MOH          12140 ****               0 ****  **** 
   1974  MOH          12146 ****               0 ****  **** 
   1975  MOH          12152 ****               0 ****  **** 
   1976  MOH          12158 ****               0 ****  **** 
   1977  MOH          12164 ****               0 ****  **** 
   1978  MOH          12170 ****               0 ****  **** 
   1979  MOH          12176 ****               0 ****  **** 
   1980  MOH          12182 ****               0 ****  **** 
   1981  MOH          12188 ****               0 ****  **** 
   1982  MOH          12194 ****               0 ****  **** 
   1983  MOH          12200 ****               0 ****  **** 
   1984  MOH          12206 ****               0 ****  **** 
   1985  MOH          12212 ****               0 ****  **** 
   1986  MOH          12218 ****               0 ****  **** 
   1987  MOH          12224 ****               0 ****  **** 
   1988  MOH          12230 ****               0 ****  **** 
   1989  MOH          12236 ****               0 ****  **** 
   1990  MOH          12242 ****               0 ****  **** 
   1991  MOH          12248 ****               0 ****  **** 
   1992  MOH          12254 ****               0 ****  **** 
   1993  MOH          12260 ****               0 ****  **** 
   1994  MOH          12266 ****               0 ****  **** 
   1995  MOH          12272 ****               0 ****  **** 
   1996  MOH          12278 ****               0 ****  **** 
   1997  MOH          12284 ****               0 ****  **** 
   1998  MOH          12290 ****               0 ****  **** 
   1999  MOH          12296 ****               0 ****  **** 
   2000  MOH          12302 ****               0 ****  **** 
   2001  MOH          12308 ****               0 ****  **** 
   2002  MOH          12314 ****               0 ****  **** 
   2003  MOH          12320 ****               0 ****  **** 
   2004  MOH          12326 ****               0 ****  **** 
   2005  MOH          12332 ****               0 ****  **** 
   2006  MOH          12338 ****               0 ****  **** 
   2007  MOH          12344 ****               0 ****  **** 
   2008  MOH          12350 ****               0 ****  **** 
   2009  MOH          12356 ****               0 ****  **** 
   2010  MOH          12362 ****               0 ****  **** 
   2011  MOH          12368 ****               0 ****  **** 
   2012  MOH          12374 ****               0 ****  **** 
   2013  MOH          12380 ****               0 ****  **** 
   2014  MOH          12386 ****               0 ****  **** 
   2015  MOH          12392 ****               0 ****  **** 
   2016  MOH          12398 ****               0 ****  **** 
   2017  MOH          12404 ****               0 ****  **** 
   2018  MOH          12410 ****               0 ****  **** 
   2019  MOH          12416 ****               0 ****  **** 
   2020  MOH          12422 ****               0 ****  **** 
   2021  MOH          12428 ****               0 ****  **** 
   2022  MOH          12434 ****               0 ****  **** 
   2023  MOH          12440 ****               0 ****  **** 
   2024  MOH          12446 ****               0 ****  **** 
   2025  MOH          12452 ****               0 ****  **** 
   2026  MOH          12458 ****               0 ****  **** 
   2027  MOH          12464 ****               0 ****  **** 
   2028  MOH          12470 ****               0 ****  **** 
   2029  MOH          12476 ****               0 ****  **** 
   2030  MOH          12482 ****               0 ****  **** 
   2031  MOH          12488 ****               0 ****  **** 
   2032  MOH          12494 ****               0 ****  **** 
   2033  MOH          12500 ****               0 ****  **** 
   2034  MOH          12506 ****               0 ****  **** 
   2035  MOH          12512 ****               0 ****  **** 
   2036  MOH          12518 ****               0 ****  **** 
   2037  MOH          12524 ****               0 ****  **** 
   2038  MOH          12530 ****               0 ****  **** 
   2039  MOH          12536 ****               0 ****  **** 
   2040  MOH          12542 ****               0 ****  **** 
   2041  MOH          12548 ****               0 ****  **** 
   2042  MOH          12554 ****               0 ****  **** 
   2043  MOH          12560 ****               0 ****  **** 
   2044  MOH          12566 ****               0 ****  **** 
   2045  MOH          12572 ****               0 ****  **** 
   2046  MOH          12578 ****               0 ****  **** 
   2047  MOH          12584 ****               0 ****  **** 
   2048  MOH          12590 ****               0 ****  **** 
   2049  MOH          12596 ****               0 ****  **** 
   2050  MOH          12602 ****               0 ****  **** 
   2051  MOH          12608 ****               0 ****  **** 
   2052  MOH          12614 ****               0 ****  **** 
   2053  MOH          12620 ****               0 ****  **** 
   2054  MOH          12626 ****               0 ****  **** 
   2055  MOH          12632 ****               0 ****  **** 
   2056  MOH          12638 ****               0 ****  **** 
   2057  MOH          12644 ****               0 ****  **** 
   2058  MOH          12650 ****               0 ****  **** 
   2059  MOH          12656 ****               0 ****  **** 
   2060  MOH          12662 ****               0 ****  **** 
   2061  MOH          12668 ****               0 ****  **** 
   2062  MOH          12674 ****               0 ****  **** 
   2063  MOH          12680 ****               0 ****  **** 
   2064  MOH          12686 ****               0 ****  **** 
   2065  MOH          12692 ****               0 ****  **** 
   2066  MOH          12698 ****               0 ****  **** 
   2067  MOH          12704 ****               0 ****  **** 
   2068  MOH          12710 ****               0 ****  **** 
   2069  MOH          12716 ****               0 ****  **** 
   2070  MOH          12722 ****               0 ****  **** 
   2071  MOH          12728 ****               0 ****  **** 
   2072  MOH          12734 ****               0 ****  **** 
   2073  MOH          12740 ****               0 ****  **** 
   2074  MOH          12746 ****               0 ****  **** 
   2075  MOH          12752 ****               0 ****  **** 
   2076  MOH          12758 ****               0 ****  **** 
   2077  MOH          12764 ****               0 ****  **** 
   2078  MOH          12770 ****               0 ****  **** 
   2079  MOH          12776 ****               0 ****  **** 
   2080  MOH          12782 ****               0 ****  **** 
   2081  MOH          12788 ****               0 ****  **** 
   2082  MOH          12794 ****               0 ****  **** 
   2083  MOH          12800 ****               0 ****  **** 
   2084  MOH          12806 ****               0 ****  **** 
   2085  MOH          12812 ****               0 ****  **** 
   2086  MOH          12818 ****               0 ****  **** 
   2087  MOH          12824 ****               0 ****  **** 
   2088  MOH          12830 ****               0 ****  **** 
   2089  MOH          12836 ****               0 ****  **** 
   2090  MOH          12842 ****               0 ****  **** 
   2091  MOH          12848 ****               0 ****  **** 
   2092  MOH          12854 ****               0 ****  **** 
   2093  MOH          12860 ****               0 ****  **** 
   2094  MOH          12866 ****               0 ****  **** 
   2095  MOH          12872 ****               0 ****  **** 
   2096  MOH          12878 ****               0 ****  **** 
   2097  MOH          12884 ****               0 ****  **** 
   2098  MOH          12890 ****               0 ****  **** 
   2099  MOH          12896 ****               0 ****  **** 
   2100  MOH          12902 ****               0 ****  **** 
   2101  MOH          12908 ****               0 ****  **** 
   2102  MOH          12914 ****               0 ****  **** 
   2103  MOH          12920 ****               0 ****  **** 
   2104  MOH          12926 ****               0 ****  **** 
   2105  MOH          12932 ****               0 ****  **** 
   2106  MOH          12938 ****               0 ****  **** 
   2107  MOH          12944 ****               0 ****  **** 
   2108  MOH          12950 ****               0 ****  **** 
   2109  MOH          12956 ****               0 ****  **** 
   2110  MOH          12962 ****               0 ****  **** 
   2111  MOH          12968 ****               0 ****  **** 
   2112  MOH          12974 ****               0 ****  **** 
   2113  MOH          12980 ****               0 ****  **** 
   2114  MOH          12986 ****               0 ****  **** 
   2115  MOH          12992 ****               0 ****  **** 
   2116  MOH          12998 ****               0 ****  **** 
   2117  MOH          13004 ****               0 ****  **** 
   2118  MOH          13010 ****               0 ****  **** 
   2119  MOH          13016 ****               0 ****  **** 
   2120  MOH          13022 ****               0 ****  **** 
   2121  MOH          13028 ****               0 ****  **** 
   2122  MOH          13034 ****               0 ****  **** 
   2123  MOH          13040 ****               0 ****  **** 
   2124  MOH          13046 ****               0 ****  **** 
   2125  MOH          13052 ****               0 ****  **** 
   2126  MOH          13058 ****               0 ****  **** 
   2127  MOH          13064 ****               0 ****  **** 
   2128  MOH          13070 ****               0 ****  **** 
   2129  MOH          13076 ****               0 ****  **** 
   2130  MOH          13082 ****               0 ****  **** 
   2131  MOH          13088 ****               0 ****  **** 
   2132  MOH          13094 ****               0 ****  **** 
   2133  MOH          13100 ****               0 ****  **** 
   2134  MOH          13106 ****               0 ****  **** 
   2135  MOH          13112 ****               0 ****  **** 
   2136  MOH          13118 ****               0 ****  **** 
   2137  MOH          13124 ****               0 ****  **** 
   2138  MOH          13130 ****               0 ****  **** 
   2139  MOH          13136 ****               0 ****  **** 
   2140  MOH          13142 ****               0 ****  **** 
   2141  MOH          13148 ****               0 ****  **** 
   2142  MOH          13154 ****               0 ****  **** 
   2143  MOH          13160 ****               0 ****  **** 
   2144  MOH          13166 ****               0 ****  **** 
   2145  MOH          13172 ****               0 ****  **** 
   2146  MOH          13178 ****               0 ****  **** 
   2147  MOH          13184 ****               0 ****  **** 
   2148  MOH          13190 ****               0 ****  **** 
   2149  MOH          13196 ****               0 ****  **** 
   2150  MOH          13202 ****               0 ****  **** 
   2151  MOH          13208 ****               0 ****  **** 
   2152  MOH          13214 ****               0 ****  **** 
   2153  MOH          13220 ****               0 ****  **** 
   2154  MOH          13226 ****               0 ****  **** 
   2155  MOH          13232 ****               0 ****  **** 
   2156  MOH          13238 ****               0 ****  **** 
   2157  MOH          13244 ****               0 ****  **** 
   2158  MOH          13250 ****               0 ****  **** 
   2159  MOH          13256 ****               0 ****  **** 
   2160  MOH          13262 ****               0 ****  **** 
   2161  MOH          13268 ****               0 ****  **** 
   2162  MOH          13274 ****               0 ****  **** 
   2163  MOH          13280 ****               0 ****  **** 
   2164  MOH          13286 ****               0 ****  **** 
   2165  MOH          13292 ****               0 ****  **** 
   2166  MOH          13298 ****               0 ****  **** 
   2167  MOH          13304 ****               0 ****  **** 
   2168  MOH          13310 ****               0 ****  **** 
   2169  MOH          13316 ****               0 ****  **** 
   2170  MOH          13322 ****               0 ****  **** 
   2171  MOH          13328 ****               0 ****  **** 
   2172  MOH          13334 ****               0 ****  **** 
   2173  MOH          13340 ****               0 ****  **** 
   2174  MOH          13346 ****               0 ****  **** 
   2175  MOH          13352 ****               0 ****  **** 
   2176  MOH          13358 ****               0 ****  **** 
   2177  MOH          13364 ****               0 ****  **** 
   2178  MOH          13370 ****               0 ****  **** 
   2179  MOH          13376 ****               0 ****  **** 
   2180  MOH          13382 ****               0 ****  **** 
   2181  MOH          13388 ****               0 ****  **** 
   2182  MOH          13394 ****               0 ****  **** 
   2183  MOH          13400 ****               0 ****  **** 
   2184  MOH          13406 ****               0 ****  **** 
   2185  MOH          13412 ****               0 ****  **** 
   2186  MOH          13418 ****               0 ****  **** 
   2187  MOH          13424 ****               0 ****  **** 
   2188  MOH          13430 ****               0 ****  **** 
   2189  MOH          13436 ****               0 ****  **** 
   2190  MOH          13442 ****               0 ****  **** 
   2191  MOH          13448 ****               0 ****  **** 
   2192  MOH          13454 ****               0 ****  **** 
   2193  MOH          13460 ****               0 ****  **** 
   2194  MOH          13466 ****               0 ****  **** 
   2195  MOH          13472 ****               0 ****  **** 
   2196  MOH          13478 ****               0 ****  **** 
   2197  MOH          13484 ****               0 ****  **** 
   2198  MOH          13490 ****               0 ****  **** 
   2199  MOH          13496 ****               0 ****  **** 
   2200  MOH          13502 ****               0 ****  **** 
   2201  MOH          13508 ****               0 ****  **** 
   2202  MOH          13514 ****               0 ****  **** 
   2203  MOH          13520 ****               0 ****  **** 
   2204  MOH          13526 ****               0 ****  **** 
   2205  MOH          13532 ****               0 ****  **** 
   2206  MOH          13538 ****               0 ****  **** 
   2207  MOH          13544 ****               0 ****  **** 
   2208  MOH          13550 ****               0 ****  **** 
   2209  MOH          13556 ****               0 ****  **** 
   2210  MOH          13562 ****               0 ****  **** 
   2211  MOH          13568 ****               0 ****  **** 
   2212  MOH          13574 ****               0 ****  **** 
   2213  MOH          13580 ****               0 ****  **** 
   2214  MOH          13586 ****               0 ****  **** 
   2215  MOH          13592 ****               0 ****  **** 
   2216  MOH          13598 ****               0 ****  **** 
   2217  MOH          13604 ****               0 ****  **** 
   2218  MOH          13610 ****               0 ****  **** 
   2219  MOH          13616 ****               0 ****  **** 
   2220  MOH          13622 ****               0 ****  **** 
   2221  MOH          13628 ****               0 ****  **** 
   2222  MOH          13634 ****               0 ****  **** 
   2223  MOH          13640 ****               0 ****  **** 
   2224  MOH          13646 ****               0 ****  **** 
   2225  MOH          13652 ****               0 ****  **** 
   2226  MOH          13658 ****               0 ****  **** 
   2227  MOH          13664 ****               0 ****  **** 
   2228  MOH          13670 ****               0 ****  **** 
   2229  MOH          13676 ****               0 ****  **** 
   2230  MOH          13682 ****               0 ****  **** 
   2231  MOH          13688 ****               0 ****  **** 
   2232  MOH          13694 ****               0 ****  **** 
   2233  MOH          13700 ****               0 ****  **** 
   2234  MOH          13706 ****               0 ****  **** 
   2235  MOH          13712 ****               0 ****  **** 
   2236  MOH          13718 ****               0 ****  **** 
   2237  MOH          13724 ****               0 ****  **** 
   2238  MOH          13730 ****               0 ****  **** 
   2239  MOH          13736 ****               0 ****  **** 
   2240  MOH          13742 ****               0 ****  **** 
   2241  MOH          13748 ****               0 ****  **** 
   2242  MOH          13754 ****               0 ****  **** 
   2243  MOH          13760 ****               0 ****  **** 
   2244  MOH          13766 ****               0 ****  **** 
   2245  MOH          13772 ****               0 ****  **** 
   2246  MOH          13778 ****               0 ****  **** 
   2247  MOH          13784 ****               0 ****  **** 
   2248  MOH          13790 ****               0 ****  **** 
   2249  MOH          13796 ****               0 ****  **** 
   2250  MOH          13802 ****               0 ****  **** 
   2251  MOH          13808 ****               0 ****  **** 
   2252  MOH          13814 ****               0 ****  **** 
   2253  MOH          13820 ****               0 ****  **** 
   2254  MOH          13826 ****               0 ****  **** 
   2255  MOH          13832 ****               0 ****  **** 
   2256  MOH          13838 ****               0 ****  **** 
   2257  MOH          13844 ****               0 ****  **** 
   2258  MOH          13850 ****               0 ****  **** 
   2259  MOH          13856 ****               0 ****  **** 
   2260  MOH          13862 ****               0 ****  **** 
   2261  MOH          13868 ****               0 ****  **** 
   2262  MOH          13874 ****               0 ****  **** 
   2263  MOH          13880 ****               0 ****  **** 
   2264  MOH          13886 ****               0 ****  **** 
   2265  MOH          13892 ****               0 ****  **** 
   2266  MOH          13898 ****               0 ****  **** 
   2267  MOH          13904 ****               0 ****  **** 
   2268  MOH          13910 ****               0 ****  **** 
   2269  MOH          13916 ****               0 ****  **** 
   2270  MOH          13922 ****               0 ****  **** 
   2271  MOH          13928 ****               0 ****  **** 
   2272  MOH          13934 ****               0 ****  **** 
   2273  MOH          13940 ****               0 ****  **** 
   2274  MOH          13946 ****               0 ****  **** 
   2275  MOH          13952 ****               0 ****  **** 
   2276  MOH          13958 ****               0 ****  **** 
   2277  MOH          13964 ****               0 ****  **** 
   2278  MOH          13970 ****               0 ****  **** 
   2279  MOH          13976 ****               0 ****  **** 
   2280  MOH          13982 ****               0 ****  **** 
   2281  MOH          13988 ****               0 ****  **** 
   2282  MOH          13994 ****               0 ****  **** 
   2283  MOH          14000 ****               0 ****  **** 
   2284  MOH          14006 ****               0 ****  **** 
   2285  MOH          14012 ****               0 ****  **** 
   2286  MOH          14018 ****               0 ****  **** 
   2287  MOH          14024 ****               0 ****  **** 
   2288  MOH          14030 ****               0 ****  **** 
   2289  MOH          14036 ****               0 ****  **** 
   2290  MOH          14042 ****               0 ****  **** 
   2291  MOH          14048 ****               0 ****  **** 
   2292  MOH          14054 ****               0 ****  **** 
   2293  MOH          14060 ****               0 ****  **** 
   2294  MOH          14066 ****               0 ****  **** 
   2295  MOH          14072 ****               0 ****  **** 
   2296  MOH          14078 ****               0 ****  **** 
   2297  MOH          14084 ****               0 ****  **** 
   2298  MOH          14090 ****               0 ****  **** 
   2299  MOH          14096 ****               0 ****  **** 
   2300  MOH          14102 ****               0 ****  **** 
   2301  MOH          14108 ****               0 ****  **** 
   2302  MOH          14114 ****               0 ****  **** 
   2303  MOH          14120 ****               0 ****  **** 
   2304  MOH          14126 ****               0 ****  **** 
   2305  MOH          14132 ****               0 ****  **** 
   2306  MOH          14138 ****               0 ****  **** 
   2307  MOH          14144 ****               0 ****  **** 
   2308  MOH          14150 ****               0 ****  **** 
   2309  MOH          14156 ****               0 ****  **** 
   2310  MOH          14162 ****               0 ****  **** 
   2311  MOH          14168 ****               0 ****  **** 
   2312  MOH          14174 ****               0 ****  **** 
   2313  MOH          14180 ****               0 ****  **** 
   2314  MOH          14186 ****               0 ****  **** 
   2315  MOH          14192 ****               0 ****  **** 
   2316  MOH          14198 ****               0 ****  **** 
   2317  MOH          14204 ****               0 ****  **** 
   2318  MOH          14210 ****               0 ****  **** 
   2319  MOH          14216 ****               0 ****  **** 
   2320  MOH          14222 ****               0 ****  **** 
   2321  MOH          14228 ****               0 ****  **** 
   2322  MOH          14234 ****               0 ****  **** 
   2323  MOH          14240 ****               0 ****  **** 
   2324  MOH          14246 ****               0 ****  **** 
   2325  MOH          14252 ****               0 ****  **** 
   2326  MOH          14258 ****               0 ****  **** 
   2327  MOH          14264 ****               0 ****  **** 
   2328  MOH          14270 ****               0 ****  **** 
   2329  MOH          14276 ****               0 ****  **** 
   2330  MOH          14282 ****               0 ****  **** 
   2331  MOH          14288 ****               0 ****  **** 
   2332  MOH          14294 ****               0 ****  **** 
   2333  MOH          14300 ****               0 ****  **** 
   2334  MOH          14306 ****               0 ****  **** 
   2335  MOH          14312 ****               0 ****  **** 
   2336  MOH          14318 ****               0 ****  **** 
   2337  MOH          14324 ****               0 ****  **** 
   2338  MOH          14330 ****               0 ****  **** 
   2339  MOH          14336 ****               0 ****  **** 
   2340  MOH          14342 ****               0 ****  **** 
   2341  MOH          14348 ****               0 ****  **** 
   2342  MOH          14354 ****               0 ****  **** 
   2343  MOH          14360 ****               0 ****  **** 
   2344  MOH          14366 ****               0 ****  **** 
   2345  MOH          14372 ****               0 ****  **** 
   2346  MOH          14378 ****               0 ****  **** 
   2347  MOH          14384 ****               0 ****  **** 
   2348  MOH          14390 ****               0 ****  **** 
   2349  MOH          14396 ****               0 ****  **** 
   2350  MOH          14402 ****               0 ****  **** 
   2351  MOH          14408 ****               0 ****  **** 
   2352  MOH          14414 ****               0 ****  **** 
   2353  MOH          14420 ****               0 ****  **** 
   2354  MOH          14426 ****               0 ****  **** 
   2355  MOH          14432 ****               0 ****  **** 
   2356  MOH          14438 ****               0 ****  **** 
   2357  MOH          14444 ****               0 ****  **** 
   2358  MOH          14450 ****               0 ****  **** 
   2359  MOH          14456 ****               0 ****  **** 
   2360  MOH          14462 ****               0 ****  **** 
   2361  MOH          14468 ****               0 ****  **** 
   2362  MOH          14474 ****               0 ****  **** 
   2363  MOH          14480 ****               0 ****  **** 
   2364  MOH          14486 ****               0 ****  **** 
   2365  MOH          14492 ****               0 ****  **** 
   2366  MOH          14498 ****               0 ****  **** 
   2367  MOH          14504 ****               0 ****  **** 
   2368  MOH          14510 ****               0 ****  **** 
   2369  MOH          14516 ****               0 ****  **** 
   2370  MOH          14522 ****               0 ****  **** 
   2371  MOH          14528 ****               0 ****  **** 
   2372  MOH          14534 ****               0 ****  **** 
   2373  MOH          14540 ****               0 ****  **** 
   2374  MOH          14546 ****               0 ****  **** 
   2375  MOH          14552 ****               0 ****  **** 
   2376  MOH          14558 ****               0 ****  **** 
   2377  MOH          14564 ****               0 ****  **** 
   2378  MOH          14570 ****               0 ****  **** 
   2379  MOH          14576 ****               0 ****  **** 
   2380  MOH          14582 ****               0 ****  **** 
   2381  MOH          14588 ****               0 ****  **** 
   2382  MOH          14594 ****               0 ****  **** 
   2383  MOH          14600 ****               0 ****  **** 
   2384  MOH          14606 ****               0 ****  **** 
   2385  MOH          14612 ****               0 ****  **** 
   2386  MOH          14618 ****               0 ****  **** 
   2387  MOH          14624 ****               0 ****  **** 
   2388  MOH          14630 ****               0 ****  **** 
   2389  MOH          14636 ****               0 ****  **** 
   2390  MOH          14642 ****               0 ****  **** 
   2391  MOH          14648 ****               0 ****  **** 
   2392  MOH          14654 ****               0 ****  **** 
   2393  MOH          14660 ****               0 ****  **** 
   2394  MOH          14666 ****               0 ****  **** 
   2395  MOH          14672 ****               0 ****  **** 
   2396  MOH          14678 ****               0 ****  **** 
   2397  MOH          14684 ****               0 ****  **** 
   2398  MOH          14690 ****               0 ****  **** 
   2399  MOH          14696 ****               0 ****  **** 
   2400  MOH          14702 ****               0 ****  **** 
   2401  MOH          14708 ****               0 ****  **** 
   2402  MOH          14714 ****               0 ****  **** 
   2403  MOH          14720 ****               0 ****  **** 
   2404  MOH          14726 ****               0 ****  **** 
   2405  MOH          14732 ****               0 ****  **** 
   2406  MOH          14738 ****               0 ****  **** 
   2407  MOH          14744 ****               0 ****  **** 
   2408  MOH          14750 ****               0 ****  **** 
   2409  MOH          14756 ****               0 ****  **** 
   2410  MOH          14762 ****               0 ****  **** 
