@<TRIPOS>MOLECULE
XAP
15931 13338  2604     0     1 
SMALL
USER_CHARGES
@<TRIPOS>ATOM
  1 O1     -5.467500   18.399059   -6.958583 O     1 XAP    -0.5795 ****
  2 H1     -5.518818   18.702867   -7.900469 H     1 XAP     0.4237 ****
  3 C2     -4.160719   18.031486   -6.664418 C     1 XAP     0.6227 ****
  4 O8     -3.871708   17.619165   -5.535631 O     1 XAP    -0.4863 ****
  5 C3     -3.101295   18.136148   -7.716880 C     1 XAP    -0.1745 ****
  6 H2     -3.325259   17.412307   -8.512930 H     1 XAP     0.0736 ****
  7 H3     -3.148946   19.134576   -8.173685 H     1 XAP     0.0736 ****
  8 C4     -1.718623   17.858536   -7.118402 C     1 XAP    -0.0745 ****
  9 H4     -1.503295   18.594247   -6.330898 H     1 XAP     0.0652 ****
 10 H5     -1.699322   16.845369   -6.690478 H     1 XAP     0.0652 ****
 11 C5     -0.664272   17.966069   -8.224659 C     1 XAP    -0.1585 ****
 12 H6     -0.868232   17.248450   -9.031644 H     1 XAP     0.0746 ****
 13 H7     -0.673307   18.966735   -8.681371 H     1 XAP     0.0746 ****
 14 C4      0.730107   17.677586   -7.681463 C     2 rAPO    0.6677 ****
 15 O6      1.747961   17.702563   -8.382209 O     2 rAPO   -0.6236 ****
 16 N5      0.784581   17.388880   -6.367920 N     2 rAPO   -0.5695 ****
 17 H8     -0.064213   17.376750   -5.852701 H     2 rAPO    0.3203 ****
 18 C7      2.030988   17.098331   -5.644766 C     2 rAPO    0.0478 ****
 19 C10     3.161921   18.132556   -5.883454 C     2 rAPO   -0.0972 ****
 20 C11     2.698353   19.539500   -5.462487 C     2 rAPO   -0.0113 ****
 21 S12     4.030842   20.727117   -5.768684 S     2 rAPO   -0.3064 ****
 22 C13     5.481237   20.316194   -4.768694 C     2 rAPO   -0.0033 ****
 23 C14     6.600511   21.321375   -5.073753 C     2 rAPO   -0.1174 ****
 24 C15     7.781816   20.971868   -4.228531 C     2 rAPO    0.4096 ****
 25 C16     8.702115   19.919041   -4.655203 C     2 rAPO   -0.2427 ****
 26 C17     9.746590   19.621830   -3.892533 C     2 rAPO   -0.0898 ****
 27 C19     9.945733   20.354958   -2.652782 C     2 rAPO   -0.2487 ****
 28 C21     9.078333   21.305496   -2.308808 C     2 rAPO    0.4002 ****
 29 N23     7.979288   21.598355   -3.137049 N     2 rAPO   -0.6664 ****
 30 H21     9.217017   21.844259   -1.406532 H     2 rAPO    0.0222 ****
 31 H20    10.772984   20.135576   -2.027381 H     2 rAPO    0.1444 ****
 32 H19    10.426989   18.861054   -4.182356 H     2 rAPO    0.1393 ****
 33 H18     8.534579   19.397980   -5.564130 H     2 rAPO    0.1444 ****
 34 H16     6.851044   21.218491   -6.139890 H     2 rAPO    0.0684 ****
 35 H17     6.240541   22.329604   -4.829826 H     2 rAPO    0.0684 ****
 36 H14     5.218945   20.368704   -3.702745 H     2 rAPO    0.0719 ****
 37 H15     5.825959   19.300336   -5.011998 H     2 rAPO    0.0719 ****
 38 H12     1.817446   19.821132   -6.056193 H     2 rAPO    0.0729 ****
 39 H13     2.438033   19.540256   -4.394763 H     2 rAPO    0.0729 ****
 40 H10     4.040581   17.844233   -5.291483 H     2 rAPO    0.0789 ****
 41 H11     3.430690   18.143397   -6.946964 H     2 rAPO    0.0789 ****
 42 H9      1.757124   17.061796   -4.582096 H     2 rAPO    0.0859 ****
 43 C8      2.542271   15.740257   -6.036216 C     2 rAPO    0.6377 ****
 44 O9      3.697842   15.622920   -6.458807 O     2 rAPO   -0.6106 ****
 45 N25     1.772933   14.665305   -5.889593 N     2 rAPO   -0.5575 ****
 46 H22     0.850240   14.760405   -5.535134 H     2 rAPO    0.3443 ****
 47 C26     2.292184   13.358710   -6.205296 C     2 rAPO    0.0852 ****
 48 H23     1.523450   12.758832   -6.714409 H     2 rAPO    0.0739 ****
 49 H24     3.192905   13.444772   -6.827308 H     2 rAPO    0.0739 ****
 50 C27     2.653332   12.665003   -4.874026 C     2 rAPO    0.1127 ****
 51 H25     3.405756   13.268624   -4.347432 H     2 rAPO    0.0583 ****
 52 H26     1.751162   12.582104   -4.251917 H     2 rAPO    0.0583 ****
 53 O28     3.185934   11.356790   -5.115690 O     2 rAPO   -0.4388 ****
 54 C29     3.511972   10.760983   -3.892614 C     2 rAPO    0.6357 ****
 55 O31     3.315463   11.370694   -2.834405 O     2 rAPO   -0.5417 ****
 56 C30     4.111687    9.385487   -3.855847 C     2 rAPO   -0.1291 ****
 57 H27     3.467092    8.698032   -4.421270 H     2 rAPO    0.0834 ****
 58 H28     5.080380    9.410306   -4.374327 H     2 rAPO    0.0834 ****
 59 C32     4.290969    8.914125   -2.401820 C     2 rAPO   -0.0782 ****
 60 H29     4.951787    9.610737   -1.869227 H     2 rAPO    0.0624 ****
 61 H30     3.312020    8.883224   -1.903317 H     2 rAPO    0.0624 ****
 62 C33     4.915098    7.510677   -2.392091 C     2 rAPO   -0.1560 ****
 63 H31     4.280866    6.794382   -2.932898 H     2 rAPO    0.0754 ****
 64 H32     5.891657    7.510822   -2.898384 H     2 rAPO    0.0754 ****
 65 C4      5.089142    6.999130   -0.967098 C     3 rPOO    0.6669 ****
 66 O6      5.571656    5.892112   -0.699034 O     3 rPOO   -0.6224 ****
 67 N5      4.679577    7.838352   -0.006076 N     3 rPOO   -0.5703 ****
 68 H8      4.299438    8.717108   -0.273131 H     3 rPOO    0.3224 ****
 69 C7      4.761457    7.517588    1.410762 C     3 rPOO    0.0508 ****
 70 C8      6.255030    7.403065    1.828076 C     3 rPOO   -0.0862 ****
 71 C9      6.373412    7.102928    3.339013 C     3 rPOO   -0.0143 ****
 72 S10     8.116980    6.996925    3.789732 S     3 rPOO   -0.2974 ****
 73 C11     8.241407    6.647204    5.556152 C     3 rPOO   -0.0143 ****
 74 C26     9.720118    6.551105    5.956654 C     3 rPOO   -0.1171 ****
 75 C27     9.848398    6.267616    7.420959 C     3 rPOO    0.6319 ****
 76 O28     8.842876    6.283278    8.141272 O     3 rPOO   -0.5375 ****
 77 O29    11.097033    5.986458    7.965698 O     3 rPOO   -0.4387 ****
 78 C30    10.968269    5.749568    9.368013 C     3 rPOO    0.1260 ****
 79 H31    11.956252    5.526764    9.794686 H     3 rPOO    0.0518 ****
 80 H32    10.294700    4.894818    9.535067 H     3 rPOO    0.0518 ****
 81 H33    10.552148    6.643293    9.853708 H     3 rPOO    0.0518 ****
 82 H29    10.240361    5.763429    5.393880 H     3 rPOO    0.0940 ****
 83 H30    10.238905    7.495649    5.735979 H     3 rPOO    0.0940 ****
 84 H14     7.759142    7.456206    6.124426 H     3 rPOO    0.0784 ****
 85 H15     7.738900    5.694091    5.777649 H     3 rPOO    0.0784 ****
 86 H12     5.896499    7.910265    3.910297 H     3 rPOO    0.0709 ****
 87 H13     5.882772    6.147903    3.573537 H     3 rPOO    0.0709 ****
 88 H10     6.739574    6.600721    1.256181 H     3 rPOO    0.0799 ****
 89 H11     6.757501    8.357477    1.617312 H     3 rPOO    0.0799 ****
 90 H9      4.255686    8.325405    1.955952 H     3 rPOO    0.0869 ****
 91 C12     4.036370    6.218086    1.648653 C     3 rPOO    0.6389 ****
 92 O13     4.654331    5.146608    1.663727 O     3 rPOO   -0.6144 ****
 93 N14     2.724234    6.224916    1.832708 N     3 rPOO   -0.5593 ****
 94 H16     2.224258    7.082725    1.817285 H     3 rPOO    0.3455 ****
 95 C15     2.034212    4.996045    2.050011 C     3 rPOO    0.0852 ****
 96 H17     2.236593    4.315963    1.209457 H     3 rPOO    0.0734 ****
 97 H18     2.413500    4.528663    2.969520 H     3 rPOO    0.0734 ****
 98 C16     0.529919    5.259126    2.172132 C     3 rPOO    0.1147 ****
 99 H19     0.344148    5.934675    3.018846 H     3 rPOO    0.0579 ****
100 H20     0.163565    5.722462    1.244175 H     3 rPOO    0.0579 ****
101 O17    -0.149311    4.022815    2.387797 O     3 rPOO   -0.4387 ****
102 C18    -1.514393    4.254101    2.499062 C     3 rPOO    0.6369 ****
103 O19    -1.963093    5.402109    2.407176 O     3 rPOO   -0.5415 ****
104 C20    -2.445974    3.107158    2.726444 C     3 rPOO   -0.1290 ****
105 H21    -1.957495    2.161565    2.452503 H     3 rPOO    0.0839 ****
106 H22    -2.714549    3.077041    3.792728 H     3 rPOO    0.0839 ****
107 C21    -3.737298    3.332696    1.935511 C     3 rPOO   -0.0782 ****
108 H23    -4.206465    4.272804    2.257816 H     3 rPOO    0.0629 ****
109 H24    -3.507330    3.387350    0.862231 H     3 rPOO    0.0629 ****
110 C22    -4.696479    2.167493    2.198756 C     3 rPOO   -0.1560 ****
111 H25    -4.239622    1.215691    1.893541 H     3 rPOO    0.0754 ****
112 H26    -4.930137    2.077958    3.269918 H     3 rPOO    0.0754 ****
113 C4     -5.995098    2.341248    1.420313 C     4 rOOO    0.6669 ****
114 O6     -6.927340    1.529588    1.468277 O     4 rOOO   -0.6224 ****
115 N5     -6.064910    3.447643    0.667574 N     4 rOOO   -0.5703 ****
116 H8     -5.289198    4.069166    0.663559 H     4 rOOO    0.3224 ****
117 C7     -7.223753    3.776318   -0.148564 C     4 rOOO    0.0508 ****
118 C8     -8.444080    4.050617    0.775333 C     4 rOOO   -0.0862 ****
119 C9     -9.680808    4.442759   -0.063568 C     4 rOOO   -0.0143 ****
120 S10   -11.068730    4.772185    1.040773 S     4 rOOO   -0.2974 ****
121 C11   -12.505810    5.229818    0.049110 C     4 rOOO   -0.0143 ****
122 C26   -13.698063    5.511447    0.974013 C     4 rOOO   -0.1171 ****
123 C27   -14.901572    5.899895    0.172960 C     4 rOOO    0.6319 ****
124 O28   -14.795764    6.087613   -1.045127 O     4 rOOO   -0.5375 ****
125 O29   -16.134086    6.046948    0.800785 O     4 rOOO   -0.4387 ****
126 C30   -17.123140    6.416437   -0.160689 C     4 rOOO    0.1260 ****
127 H31   -18.095509    6.530634    0.338570 H     4 rOOO    0.0518 ****
128 H32   -17.195599    5.633575   -0.931453 H     4 rOOO    0.0518 ****
129 H33   -16.838715    7.367842   -0.631573 H     4 rOOO    0.0518 ****
130 H29   -13.946834    4.635853    1.589846 H     4 rOOO    0.0940 ****
131 H30   -13.459497    6.331160    1.667666 H     4 rOOO    0.0940 ****
132 H14   -12.274441    6.131886   -0.536331 H     4 rOOO    0.0784 ****
133 H15   -12.758162    4.404955   -0.633472 H     4 rOOO    0.0784 ****
134 H12    -9.455378    5.345334   -0.646786 H     4 rOOO    0.0709 ****
135 H13    -9.949968    3.623325   -0.744656 H     4 rOOO    0.0709 ****
136 H10    -8.671529    3.153263    1.365778 H     4 rOOO    0.0799 ****
137 H11    -8.198564    4.881218    1.451812 H     4 rOOO    0.0799 ****
138 H9     -6.963038    4.664347   -0.739358 H     4 rOOO    0.0869 ****
139 C12    -7.499959    2.619002   -1.073432 C     4 rOOO    0.6389 ****
140 O13    -8.323255    1.749168   -0.764011 O     4 rOOO   -0.6144 ****
141 N14    -6.846540    2.529166   -2.222604 N     4 rOOO   -0.5593 ****
142 H16    -6.182001    3.223412   -2.472525 H     4 rOOO    0.3455 ****
143 C15    -7.099880    1.430906   -3.096171 C     4 rOOO    0.0852 ****
144 H17    -6.923991    0.490728   -2.552915 H     4 rOOO    0.0734 ****
145 H18    -8.153276    1.455720   -3.408490 H     4 rOOO    0.0734 ****
146 C16    -6.183073    1.518302   -4.320447 C     4 rOOO    0.1147 ****
147 H19    -6.374938    2.459264   -4.854843 H     4 rOOO    0.0579 ****
148 H20    -5.133204    1.487984   -3.993558 H     4 rOOO    0.0579 ****
149 O17    -6.444780    0.414123   -5.185680 O     4 rOOO   -0.4387 ****
150 C18    -5.616230    0.486958   -6.298119 C     4 rOOO    0.6369 ****
151 O19    -4.808366    1.414974   -6.415751 O     4 rOOO   -0.5415 ****
152 C20    -5.699234   -0.565839   -7.356303 C     4 rOOO   -0.1290 ****
153 H21    -6.194114   -1.463640   -6.960261 H     4 rOOO    0.0839 ****
154 H22    -6.287618   -0.173402   -8.198797 H     4 rOOO    0.0839 ****
155 C21    -4.294924   -0.873399   -7.882878 C     4 rOOO   -0.0782 ****
156 H23    -3.847109    0.042705   -8.292775 H     4 rOOO    0.0629 ****
157 H24    -3.668613   -1.252009   -7.063006 H     4 rOOO    0.0629 ****
158 C22    -4.393908   -1.930894   -8.986930 C     4 rOOO   -0.1560 ****
159 H25    -4.851085   -2.851802   -8.598705 H     4 rOOO    0.0754 ****
160 H26    -5.031118   -1.584882   -9.814118 H     4 rOOO    0.0754 ****
161 C4     -3.015477   -2.280414   -9.534963 C     5 rOOP    0.6669 ****
162 O6     -2.834621   -3.109962  -10.434580 O     5 rOOP   -0.6224 ****
163 N5     -1.993948   -1.621288   -8.971376 N     5 rOOP   -0.5703 ****
164 H8     -2.191634   -0.963881   -8.252508 H     5 rOOP    0.3224 ****
165 C7     -0.607756   -1.829730   -9.361309 C     5 rOOP    0.0508 ****
166 C8     -0.407158   -1.352334  -10.827555 C     5 rOOP   -0.0862 ****
167 C9      1.067333   -1.524077  -11.255812 C     5 rOOP   -0.0143 ****
168 S10     1.265841   -0.942643  -12.951969 S     5 rOOP   -0.2974 ****
169 C11     2.991642   -1.147648  -13.439418 C     5 rOOP   -0.0143 ****
170 C26     3.177969   -0.659533  -14.882765 C     5 rOOP   -0.1171 ****
171 C27     4.605150   -0.814009  -15.307382 C     5 rOOP    0.6319 ****
172 O28     5.460320   -1.151907  -14.479929 O     5 rOOP   -0.5375 ****
173 O29     4.963984   -0.578420  -16.630491 O     5 rOOP   -0.4387 ****
174 C30     6.366772   -0.789804  -16.793857 C     5 rOOP    0.1260 ****
175 H31     6.646387   -0.603882  -17.840304 H     5 rOOP    0.0518 ****
176 H32     6.614541   -1.828686  -16.526395 H     5 rOOP    0.0518 ****
177 H33     6.919518   -0.101911  -16.138819 H     5 rOOP    0.0518 ****
178 H29     2.535799   -1.213005  -15.582113 H     5 rOOP    0.0940 ****
179 H30     2.900296    0.401492  -14.967166 H     5 rOOP    0.0940 ****
180 H14     3.634212   -0.559837  -12.767420 H     5 rOOP    0.0784 ****
181 H15     3.267704   -2.210388  -13.373281 H     5 rOOP    0.0784 ****
182 H12     1.712102   -0.935653  -10.589753 H     5 rOOP    0.0709 ****
183 H13     1.354587   -2.583558  -11.203030 H     5 rOOP    0.0709 ****
184 H10    -1.053536   -1.933272  -11.498608 H     5 rOOP    0.0799 ****
185 H11    -0.672571   -0.287975  -10.894625 H     5 rOOP    0.0799 ****
186 H9      0.015264   -1.252859   -8.665126 H     5 rOOP    0.0869 ****
187 C12    -0.289182   -3.296433   -9.225877 C     5 rOOP    0.6389 ****
188 O13    -0.377346   -4.051938  -10.201381 O     5 rOOP   -0.6144 ****
189 N14     0.078301   -3.780367   -8.048426 N     5 rOOP   -0.5593 ****
190 H16     0.146303   -3.177647   -7.262199 H     5 rOOP    0.3455 ****
191 C15     0.372592   -5.169308   -7.915340 C     5 rOOP    0.0852 ****
192 H17    -0.498091   -5.755053   -8.245209 H     5 rOOP    0.0734 ****
193 H18     1.222342   -5.420501   -8.565439 H     5 rOOP    0.0734 ****
194 C16     0.709684   -5.491732   -6.456081 C     5 rOOP    0.1147 ****
195 H19     1.584053   -4.903629   -6.143966 H     5 rOOP    0.0579 ****
196 H20    -0.150313   -5.239713   -5.818201 H     5 rOOP    0.0579 ****
197 O17     1.000720   -6.883523   -6.335475 O     5 rOOP   -0.4387 ****
198 C18     1.306947   -7.182977   -5.014160 C     5 rOOP    0.6369 ****
199 O19     1.296321   -6.295623   -4.153819 O     5 rOOP   -0.5415 ****
200 C20     1.646521   -8.587393   -4.630325 C     5 rOOP   -0.1290 ****
201 H21     1.292405   -9.287268   -5.400116 H     5 rOOP    0.0839 ****
202 H22     2.739473   -8.674182   -4.541307 H     5 rOOP    0.0839 ****
203 C21     1.049185   -8.900495   -3.255873 C     5 rOOP   -0.0782 ****
204 H23     1.448369   -8.196420   -2.512414 H     5 rOOP    0.0629 ****
205 H24    -0.044879   -8.805947   -3.299283 H     5 rOOP    0.0629 ****
206 C22     1.427885  -10.330815   -2.858639 C     5 rOOP   -0.1560 ****
207 H25     1.047183  -11.049682   -3.597623 H     5 rOOP    0.0754 ****
208 H26     2.519857  -10.459093   -2.824860 H     5 rOOP    0.0754 ****
209 C4      0.843176  -10.694051   -1.498951 C     6 rOPO    0.6677 ****
210 O6      1.010071  -11.795109   -0.962748 O     6 rOPO   -0.6236 ****
211 N5      0.121075   -9.723735   -0.908381 N     6 rOPO   -0.5695 ****
212 H8      0.013560   -8.859722   -1.385844 H     6 rOPO    0.3203 ****
213 C7     -0.512998   -9.862954    0.410509 C     6 rOPO    0.0478 ****
214 C10     0.430535  -10.401776    1.517315 C     6 rOPO   -0.0972 ****
215 C11     1.647034   -9.472123    1.683074 C     6 rOPO   -0.0113 ****
216 S12     2.738279  -10.134832    2.967489 S     6 rOPO   -0.3064 ****
217 C13     1.878375  -10.185545    4.558235 C     6 rOPO   -0.0033 ****
218 C14     2.818397  -10.779322    5.616542 C     6 rOPO   -0.1174 ****
219 C15     2.093696  -10.799195    6.922853 C     6 rOPO    0.4096 ****
220 C16     1.167921  -11.888099    7.230544 C     6 rOPO   -0.2427 ****
221 C17     0.532993  -11.890298    8.395787 C     6 rOPO   -0.0898 ****
222 C19     0.778661  -10.807562    9.334640 C     6 rOPO   -0.2487 ****
223 C21     1.631928   -9.838776    9.006592 C     6 rOPO    0.4002 ****
224 N23     2.290177   -9.862243    7.763287 N     6 rOPO   -0.6664 ****
225 H21     1.816172   -9.046212    9.685926 H     6 rOPO    0.0222 ****
226 H20     0.283507  -10.788027   10.271678 H     6 rOPO    0.1444 ****
227 H19    -0.143701  -12.670203    8.639825 H     6 rOPO    0.1393 ****
228 H18     1.005192  -12.666555    6.528230 H     6 rOPO    0.1444 ****
229 H16     3.061480  -11.804384    5.300065 H     6 rOPO    0.0684 ****
230 H17     3.712385  -10.145487    5.684691 H     6 rOPO    0.0684 ****
231 H14     1.589315   -9.166700    4.851833 H     6 rOPO    0.0719 ****
232 H15     0.978458  -10.812692    4.475553 H     6 rOPO    0.0719 ****
233 H12     2.194655   -9.422409    0.731527 H     6 rOPO    0.0729 ****
234 H13     1.308760   -8.465472    1.965962 H     6 rOPO    0.0729 ****
235 H10    -0.122548  -10.453346    2.464439 H     6 rOPO    0.0789 ****
236 H11     0.777440  -11.406628    1.246506 H     6 rOPO    0.0789 ****
237 H9     -0.883184   -8.862355    0.670061 H     6 rOPO    0.0859 ****
238 C8     -1.698258  -10.781839    0.311417 C     6 rOPO    0.6377 ****
239 O9     -1.771995  -11.763718    1.058526 O     6 rOPO   -0.6106 ****
240 N25    -2.682283  -10.518537   -0.543724 N     6 rOPO   -0.5575 ****
241 H22    -2.627881   -9.720324   -1.131895 H     6 rOPO    0.3443 ****
242 C26    -3.845886  -11.367425   -0.587294 C     6 rOPO    0.0852 ****
243 H23    -4.162345  -11.522601   -1.629299 H     6 rOPO    0.0739 ****
244 H24    -3.637699  -12.327756   -0.097369 H     6 rOPO    0.0739 ****
245 C27    -4.981570  -10.642977    0.167247 C     6 rOPO    0.1127 ****
246 H25    -4.666035  -10.464060    1.204661 H     6 rOPO    0.0583 ****
247 H26    -5.186694   -9.681033   -0.323049 H     6 rOPO    0.0583 ****
248 O28    -6.173119  -11.439026    0.169389 O     6 rOPO   -0.4388 ****
249 C29    -7.177116  -10.760309    0.868342 C     6 rOPO    0.6357 ****
250 O31    -6.948290   -9.646795    1.356087 O     6 rOPO   -0.5417 ****
251 C30    -8.532603  -11.381461    1.041043 C     6 rOPO   -0.1291 ****
252 H27    -8.923424  -11.669252    0.055023 H     6 rOPO    0.0834 ****
253 H28    -8.423282  -12.308257    1.621473 H     6 rOPO    0.0834 ****
254 C32    -9.485046  -10.407056    1.756520 C     6 rOPO   -0.0782 ****
255 H29    -9.075999  -10.152315    2.743126 H     6 rOPO    0.0624 ****
256 H30    -9.592306   -9.492595    1.156473 H     6 rOPO    0.0624 ****
257 C33   -10.859765  -11.069896    1.929979 C     6 rOPO   -0.1560 ****
258 H31   -11.286913  -11.350134    0.956937 H     6 rOPO    0.0754 ****
259 H32   -10.778412  -11.996927    2.516491 H     6 rOPO    0.0754 ****
260 C4    -11.839444  -10.126149    2.617109 C     7 rPOO    0.6669 ****
261 O6    -13.011476  -10.431848    2.868223 O     7 rPOO   -0.6224 ****
262 N5    -11.342938   -8.923540    2.937753 N     7 rPOO   -0.5703 ****
263 H8    -10.394382   -8.726570    2.715311 H     7 rPOO    0.3224 ****
264 C7    -12.132732   -7.891389    3.591904 C     7 rPOO    0.0508 ****
265 C8    -12.521084   -8.367052    5.020523 C     7 rPOO   -0.0862 ****
266 C9    -13.326992   -7.272523    5.755058 C     7 rPOO   -0.0143 ****
267 S10   -13.742038   -7.850731    7.412716 S     7 rPOO   -0.2974 ****
268 C11   -14.681824   -6.563477    8.259950 C     7 rPOO   -0.0143 ****
269 C26   -15.045831   -7.040504    9.672808 C     7 rPOO   -0.1171 ****
270 C27   -15.821220   -5.985102   10.398003 C     7 rPOO    0.6319 ****
271 O28   -15.957895   -4.864724    9.891800 O     7 rPOO   -0.5375 ****
272 O29   -16.386015   -6.268453   11.637196 O     7 rPOO   -0.4387 ****
273 C30   -17.072752   -5.116641   12.128017 C     7 rPOO    0.1260 ****
274 H31   -17.518482   -5.344467   13.106394 H     7 rPOO    0.0518 ****
275 H32   -17.866608   -4.833592   11.419584 H     7 rPOO    0.0518 ****
276 H33   -16.362926   -4.284258   12.233310 H     7 rPOO    0.0518 ****
277 H29   -15.639908   -7.964717    9.646244 H     7 rPOO    0.0940 ****
278 H30   -14.135284   -7.263733   10.248198 H     7 rPOO    0.0940 ****
279 H14   -14.073204   -5.649619    8.326621 H     7 rPOO    0.0784 ****
280 H15   -15.602187   -6.350249    7.696508 H     7 rPOO    0.0784 ****
281 H12   -12.721452   -6.359443    5.827242 H     7 rPOO    0.0709 ****
282 H13   -14.254682   -7.055412    5.207284 H     7 rPOO    0.0709 ****
283 H10   -13.122455   -9.283438    4.955772 H     7 rPOO    0.0799 ****
284 H11   -11.603154   -8.571207    5.589317 H     7 rPOO    0.0799 ****
285 H9    -11.515176   -6.984219    3.627555 H     7 rPOO    0.0869 ****
286 C12   -13.362048   -7.631788    2.759775 C     7 rPOO    0.6389 ****
287 O13   -14.427381   -8.206204    3.015279 O     7 rPOO   -0.6144 ****
288 N14   -13.295969   -6.788448    1.739954 N     7 rPOO   -0.5593 ****
289 H16   -12.441450   -6.328545    1.529392 H     7 rPOO    0.3455 ****
290 C15   -14.455459   -6.546900    0.945779 C     7 rPOO    0.0852 ****
291 H17   -14.824726   -7.503455    0.547476 H     7 rPOO    0.0734 ****
292 H18   -15.240973   -6.112122    1.579605 H     7 rPOO    0.0734 ****
293 C16   -14.110619   -5.590275   -0.200074 C     7 rPOO    0.1147 ****
294 H19   -13.749236   -4.638568    0.213999 H     7 rPOO    0.0579 ****
295 H20   -13.327221   -6.039736   -0.827986 H     7 rPOO    0.0579 ****
296 O17   -15.277518   -5.357563   -0.987805 O     7 rPOO   -0.4387 ****
297 C18   -14.971712   -4.490918   -2.029309 C     7 rPOO    0.6369 ****
298 O19   -13.824415   -4.049646   -2.158477 O     7 rPOO   -0.5415 ****
299 C20   -16.035453   -4.093853   -3.001841 C     7 rPOO   -0.1290 ****
300 H21   -16.872598   -4.804631   -2.959594 H     7 rPOO    0.0839 ****
301 H22   -16.401356   -3.091538   -2.734482 H     7 rPOO    0.0839 ****
302 C21   -15.434966   -4.001956   -4.407164 C     7 rPOO   -0.0782 ****
303 H23   -14.621208   -3.263324   -4.411736 H     7 rPOO    0.0629 ****
304 H24   -15.040125   -4.983636   -4.704157 H     7 rPOO    0.0629 ****
305 C22   -16.525422   -3.565590   -5.390787 C     7 rPOO   -0.1560 ****
306 H25   -17.354789   -4.286665   -5.391552 H     7 rPOO    0.0754 ****
307 H26   -16.951838   -2.592180   -5.106810 H     7 rPOO    0.0754 ****
308 C4    -15.976960   -3.472285   -6.809610 C     8 rOOT    0.6666 ****
309 O6    -16.665869   -3.139305   -7.781566 O     8 rOOT   -0.6227 ****
310 N5    -14.679090   -3.778903   -6.940453 N     8 rOOT   -0.5706 ****
311 H8    -14.168458   -4.039863   -6.128547 H     8 rOOT    0.3222 ****
312 C7    -13.985870   -3.752268   -8.219422 C     8 rOOT    0.0508 ****
313 C8    -13.929771   -2.289930   -8.745202 C     8 rOOT   -0.0862 ****
314 C9    -13.162161   -2.225307  -10.084464 C     8 rOOT   -0.0143 ****
315 S10   -13.100246   -0.514287  -10.652787 S     8 rOOT   -0.2975 ****
316 C11   -12.200707   -0.452441  -12.216447 C     8 rOOT   -0.0143 ****
317 C26   -12.140709    0.997697  -12.716172 C     8 rOOT   -0.1171 ****
318 C27   -11.392528    1.074716  -14.010506 C     8 rOOT    0.6315 ****
319 O28   -10.812338    0.073012  -14.446555 O     8 rOOT   -0.5378 ****
320 O29   -11.353634    2.271475  -14.718415 O     8 rOOT   -0.4389 ****
321 C30   -10.588605    2.100209  -15.911974 C     8 rOOT    0.1260 ****
322 H31   -10.560965    3.047141  -16.469070 H     8 rOOT    0.0518 ****
323 H32   -11.052172    1.320359  -16.535785 H     8 rOOT    0.0518 ****
324 H33    -9.564671    1.798531  -15.650536 H     8 rOOT    0.0518 ****
325 H29   -13.146342    1.417031  -12.859921 H     8 rOOT    0.0939 ****
326 H30   -11.631909    1.636162  -11.978958 H     8 rOOT    0.0939 ****
327 H14   -11.179020   -0.831414  -12.066332 H     8 rOOT    0.0784 ****
328 H15   -12.716808   -1.075879  -12.961408 H     8 rOOT    0.0784 ****
329 H12   -12.140201   -2.599215   -9.938190 H     8 rOOT    0.0709 ****
330 H13   -13.672123   -2.837344  -10.841531 H     8 rOOT    0.0709 ****
331 H10   -14.949116   -1.907804   -8.888447 H     8 rOOT    0.0799 ****
332 H11   -13.405589   -1.666460   -8.007422 H     8 rOOT    0.0799 ****
333 H9    -12.978234   -4.154488   -8.050626 H     8 rOOT    0.0869 ****
334 C12   -14.728403   -4.641304   -9.183429 C     8 rOOT    0.6385 ****
335 O13   -15.570850   -4.167085   -9.955158 O     8 rOOT   -0.6147 ****
336 N14   -14.482413   -5.943215   -9.195391 N     8 rOOT   -0.5596 ****
337 H16   -13.809712   -6.328038   -8.574559 H     8 rOOT    0.3453 ****
338 C15   -15.189270   -6.788167  -10.100866 C     8 rOOT    0.0852 ****
339 H17   -16.270228   -6.667548   -9.936605 H     8 rOOT    0.0734 ****
340 H18   -14.961611   -6.480960  -11.131204 H     8 rOOT    0.0734 ****
341 C16   -14.776442   -8.246944   -9.880487 C     8 rOOT    0.1147 ****
342 H19   -13.696276   -8.351736  -10.053871 H     8 rOOT    0.0578 ****
343 H20   -15.013880   -8.541771   -8.847675 H     8 rOOT    0.0578 ****
344 O17   -15.490892   -9.082142  -10.790616 O     8 rOOT   -0.4389 ****
345 C18   -15.121510  -10.406886  -10.595854 C     8 rOOT    0.6365 ****
346 O19   -14.288429  -10.702673   -9.732036 O     8 rOOT   -0.5418 ****
347 C20   -15.738896  -11.480875  -11.432758 C     8 rOOT   -0.1291 ****
348 H21   -16.667593  -11.116109  -11.893484 H     8 rOOT    0.0839 ****
349 H22   -15.030218  -11.760954  -12.226063 H     8 rOOT    0.0839 ****
350 C21   -15.978438  -12.724867  -10.573071 C     8 rOOT   -0.0782 ****
351 H23   -15.023512  -13.071639  -10.153944 H     8 rOOT    0.0628 ****
352 H24   -16.670015  -12.479835   -9.754852 H     8 rOOT    0.0628 ****
353 C3    -16.591590  -13.869968  -11.396620 C     9 rOTX   -0.1435 ****
354 H11   -15.912477  -14.143670  -12.217530 H     9 rOTX    0.0625 ****
355 H12   -17.556360  -13.550904  -11.817830 H     9 rOTX    0.0625 ****
356 C4    -16.824060  -15.094953  -10.536043 C     9 rOTX    0.6707 ****
357 N5    -15.829970  -15.771773   -9.929323 N     9 rOTX   -0.5586 ****
358 C7    -14.423855  -15.403246  -10.028720 C     9 rOTX    0.0027 ****
359 C8    -13.669773  -16.108412  -11.223434 C     9 rOTX   -0.1031 ****
360 C9    -12.169494  -15.704175  -11.053949 C     9 rOTX   -0.0269 ****
361 S10   -12.016422  -16.141062   -9.393264 S     9 rOTX   -0.2001 ****
362 C11   -13.591161  -15.887660   -8.868836 C     9 rOTX    0.5568 ****
363 O12   -14.029838  -16.188935   -7.753268 O     9 rOTX   -0.4729 ****
364 H16   -12.054245  -14.617094  -11.166968 H     9 rOTX    0.0853 ****
365 H17   -11.494803  -16.247812  -11.731629 H     9 rOTX    0.0853 ****
366 H14   -14.076475  -15.829629  -12.205613 H     9 rOTX    0.0731 ****
367 H15   -13.753752  -17.194880  -11.080830 H     9 rOTX    0.0731 ****
368 H13   -14.292738  -14.321789  -10.157823 H     9 rOTX    0.0828 ****
369 H2    -16.067873  -16.567940   -9.385661 H     9 rOTX    0.3358 ****
370 O6    -17.982698  -15.495461  -10.386452 O     9 rOTX   -0.5854 ****
371 NI     10.485036   -9.772577    8.437937 N    10 DNI    -1.0000 ****
372 DM1    10.122622  -10.692482    8.593225 D    10 DNI     0.5000 ****
373 DM2    11.247155   -9.969444    9.055000 D    10 DNI     0.5000 ****
374 DM3     9.947434   -9.431277    9.209825 D    10 DNI     0.5000 ****
375 DM4     9.722832   -9.576687    7.820680 D    10 DNI     0.5000 ****
376 DM5    11.021780  -10.114022    7.667163 D    10 DNI     0.5000 ****
377 DM6    10.846507   -8.853794    8.283570 D    10 DNI     0.5000 ****
378 Cl-    12.112135   -8.286241   10.724238 C    11 Cl-    -1.0000 ****
379 Cl-     8.289437  -11.214762    6.503960 C    12 Cl-    -1.0000 ****
380 HC1    -2.218411   -1.857448   32.018785 H    13 MOH     0.0372 ****
381 C1     -1.680898   -1.514928   31.134194 C    13 MOH     0.1166 ****
382 HC2    -2.008833   -2.088925   30.267281 H    13 MOH     0.0372 ****
383 HC3    -0.621460   -1.699456   31.312385 H    13 MOH     0.0372 ****
384 O1     -1.941283   -0.134232   30.865494 O    13 MOH    -0.6497 ****
385 HO1    -1.682053    0.070709   29.964640 H    13 MOH     0.4215 ****
386 HC1    -1.173407   -3.348371   35.040959 H    14 MOH     0.0372 ****
387 C1     -0.429780   -3.869295   34.438504 C    14 MOH     0.1166 ****
388 HC2     0.485898   -3.279785   34.390421 H    14 MOH     0.0372 ****
389 HC3    -0.765798   -3.990545   33.408250 H    14 MOH     0.0372 ****
390 O1     -0.091453   -5.098123   35.022575 O    14 MOH    -0.6497 ****
391 HO1    -0.795243   -5.369608   35.615837 H    14 MOH     0.4215 ****
392 HC1    -7.466525   -9.235311   30.290616 H    15 MOH     0.0372 ****
393 C1     -6.542764   -9.047109   29.742608 C    15 MOH     0.1166 ****
394 HC2    -5.952135   -9.961993   29.780085 H    15 MOH     0.0372 ****
395 HC3    -6.020262   -8.223672   30.229805 H    15 MOH     0.0372 ****
396 O1     -6.815851   -8.694790   28.388499 O    15 MOH    -0.6497 ****
397 HO1    -6.034119   -8.272662   28.025046 H    15 MOH     0.4215 ****
398 HC1     7.158797   -0.893737   36.115055 H    16 MOH     0.0372 ****
399 C1      6.971735   -1.879657   36.540026 C    16 MOH     0.1166 ****
400 HC2     6.579714   -1.784943   37.552603 H    16 MOH     0.0372 ****
401 HC3     7.928982   -2.396091   36.608615 H    16 MOH     0.0372 ****
402 O1      6.130536   -2.683497   35.690791 O    16 MOH    -0.6497 ****
403 HO1     5.414621   -3.029692   36.228192 H    16 MOH     0.4215 ****
404 HC1    -3.780836    0.844176   33.250565 H    17 MOH     0.0372 ****
405 C1     -3.368031    1.851733   33.213795 C    17 MOH     0.1166 ****
406 HC2    -3.453479    2.322443   34.193138 H    17 MOH     0.0372 ****
407 HC3    -3.944804    2.439610   32.499618 H    17 MOH     0.0372 ****
408 O1     -2.028578    1.796211   32.782460 O    17 MOH    -0.6497 ****
409 HO1    -1.995092    1.135665   32.086667 H    17 MOH     0.4215 ****
410 HC1    -3.126121    4.959319   35.473709 H    18 MOH     0.0372 ****
411 C1     -2.338038    4.993612   34.721347 C    18 MOH     0.1166 ****
412 HC2    -2.758349    5.385122   33.794330 H    18 MOH     0.0372 ****
413 HC3    -1.940244    3.995853   34.534671 H    18 MOH     0.0372 ****
414 O1     -1.331716    5.893799   35.071365 O    18 MOH    -0.6497 ****
415 HO1    -0.504374    5.428804   34.927822 H    18 MOH     0.4215 ****
416 HC1     0.077596    4.338781   32.755590 H    19 MOH     0.0372 ****
417 C1      0.507722    3.768867   33.580077 C    19 MOH     0.1166 ****
418 HC2     1.283103    3.125059   33.165005 H    19 MOH     0.0372 ****
419 HC3    -0.237638    3.120160   34.040403 H    19 MOH     0.0372 ****
420 O1      1.076989    4.663339   34.519822 O    19 MOH    -0.6497 ****
421 HO1     1.491526    4.124043   35.196523 H    19 MOH     0.4215 ****
422 HC1     4.131749    7.167126   30.290616 H    20 MOH     0.0372 ****
423 C1      5.055510    7.355328   29.742608 C    20 MOH     0.1166 ****
424 HC2     5.646139    6.440444   29.780085 H    20 MOH     0.0372 ****
425 HC3     5.578012    8.178765   30.229805 H    20 MOH     0.0372 ****
426 O1      4.782423    7.707646   28.388499 O    20 MOH    -0.6497 ****
427 HO1     5.564155    8.129775   28.025046 H    20 MOH     0.4215 ****
428 HC1    -0.984729   -0.714108   33.942823 H    21 MOH     0.0372 ****
429 C1     -0.470887   -0.405064   34.852869 C    21 MOH     0.1166 ****
430 HC2     0.612222   -0.431192   34.736903 H    21 MOH     0.0372 ****
431 HC3    -0.773996   -1.044381   35.683012 H    21 MOH     0.0372 ****
432 O1     -0.910251    0.852341   35.135712 O    21 MOH    -0.6497 ****
433 HO1    -1.242227    1.214457   34.310518 H    21 MOH     0.4215 ****
434 HC1    -2.218411  -26.461103   17.813858 H    22 MOH     0.0372 ****
435 C1     -1.680898  -26.118582   16.929268 C    22 MOH     0.1166 ****
436 HC2    -2.008833  -26.692580   16.062355 H    22 MOH     0.0372 ****
437 HC3    -0.621460  -26.303111   17.107459 H    22 MOH     0.0372 ****
438 O1     -1.941283  -24.737887   16.660567 O    22 MOH    -0.6497 ****
439 HO1    -1.682052  -24.532946   15.759713 H    22 MOH     0.4215 ****
440 HC1    -1.173407  -27.952025   20.836033 H    23 MOH     0.0372 ****
441 C1     -0.429780  -28.472950   20.233578 C    23 MOH     0.1166 ****
442 HC2     0.485898  -27.883440   20.185495 H    23 MOH     0.0372 ****
443 HC3    -0.765798  -28.594200   19.203323 H    23 MOH     0.0372 ****
444 O1     -0.091452  -29.701778   20.817648 O    23 MOH    -0.6497 ****
445 HO1    -0.795242  -29.973263   21.410911 H    23 MOH     0.4215 ****
446 HC1    -7.466525  -33.838966   16.085689 H    24 MOH     0.0372 ****
447 C1     -6.542764  -33.650763   15.537682 C    24 MOH     0.1166 ****
448 HC2    -5.952135  -34.565648   15.575158 H    24 MOH     0.0372 ****
449 HC3    -6.020262  -32.827327   16.024878 H    24 MOH     0.0372 ****
450 O1     -6.815851  -33.298445   14.183572 O    24 MOH    -0.6497 ****
451 HO1    -6.034119  -32.876316   13.820119 H    24 MOH     0.4215 ****
452 HC1     0.929765  -10.090918   26.725525 H    25 MOH     0.0372 ****
453 C1     -0.106579   -9.952113   27.032409 C    25 MOH     0.1166 ****
454 HC2    -0.670073   -9.587956   26.173982 H    25 MOH     0.0372 ****
455 HC3    -0.176439   -9.202161   27.820834 H    25 MOH     0.0372 ****
456 O1     -0.631968  -11.194821   27.449602 O    25 MOH    -0.6497 ****
457 HO1    -1.394648  -11.042545   28.011752 H    25 MOH     0.4215 ****
458 HC1    13.796015  -14.643703   29.542639 H    26 MOH     0.0372 ****
459 C1     14.229605  -14.450601   30.523396 C    26 MOH     0.1166 ****
460 HC2    14.515394  -13.399770   30.574307 H    26 MOH     0.0372 ****
461 HC3    15.117570  -15.069914   30.649968 H    26 MOH     0.0372 ****
462 O1     13.275245  -14.765361   31.531023 O    26 MOH    -0.6497 ****
463 HO1    13.476163  -15.656975   31.823765 H    26 MOH     0.4215 ****
464 HC1     7.158797  -25.497392   21.910128 H    27 MOH     0.0372 ****
465 C1      6.971735  -26.483311   22.335099 C    27 MOH     0.1166 ****
466 HC2     6.579714  -26.388598   23.347676 H    27 MOH     0.0372 ****
467 HC3     7.928982  -26.999745   22.403689 H    27 MOH     0.0372 ****
468 O1      6.130536  -27.287152   21.485864 O    27 MOH    -0.6497 ****
469 HO1     5.414622  -27.633347   22.023265 H    27 MOH     0.4215 ****
470 HC1    17.865757  -16.255059   24.927353 H    28 MOH     0.0372 ****
471 C1     17.671190  -15.513680   25.702342 C    28 MOH     0.1166 ****
472 HC2    16.607134  -15.471630   25.934980 H    28 MOH     0.0372 ****
473 HC3    17.972567  -14.525311   25.355152 H    28 MOH     0.0372 ****
474 O1     18.340917  -15.843953   26.913616 O    28 MOH    -0.6497 ****
475 HO1    18.123256  -16.738425   27.185852 H    28 MOH     0.4215 ****
476 HC1     1.979387  -11.542240   31.394551 H    29 MOH     0.0372 ****
477 C1      2.583296  -10.990697   32.115093 C    29 MOH     0.1166 ****
478 HC2     3.395050  -11.625931   32.468646 H    29 MOH     0.0372 ****
479 HC3     1.934931  -10.704923   32.943822 H    29 MOH     0.0372 ****
480 O1      3.087900   -9.866789   31.459605 O    29 MOH    -0.6497 ****
481 HO1     3.900809   -9.605102   31.898718 H    29 MOH     0.4215 ****
482 HC1     8.683579  -17.949697   18.933209 H    30 MOH     0.0372 ****
483 C1      7.891454  -18.482053   19.459296 C    30 MOH     0.1166 ****
484 HC2     7.918590  -18.224448   20.517835 H    30 MOH     0.0372 ****
485 HC3     8.057154  -19.549622   19.317168 H    30 MOH     0.0372 ****
486 O1      6.662853  -18.066456   18.903510 O    30 MOH    -0.6497 ****
487 HO1     5.968300  -18.425307   19.461417 H    30 MOH     0.4215 ****
488 HC1     9.379863  -10.058666   17.813858 H    31 MOH     0.0372 ****
489 C1      9.917376   -9.716146   16.929268 C    31 MOH     0.1166 ****
490 HC2     9.589441  -10.290143   16.062355 H    31 MOH     0.0372 ****
491 HC3    10.976814   -9.900674   17.107459 H    31 MOH     0.0372 ****
492 O1      9.656991   -8.335450   16.660567 O    31 MOH    -0.6497 ****
493 HO1     9.916222   -8.130510   15.759713 H    31 MOH     0.4215 ****
494 HC1    12.748702  -11.890884   26.456118 H    32 MOH     0.0372 ****
495 C1     12.797199  -12.978458   26.405206 C    32 MOH     0.1166 ****
496 HC2    12.419035  -13.333226   25.447076 H    32 MOH     0.0372 ****
497 HC3    12.190404  -13.425082   27.192923 H    32 MOH     0.0372 ****
498 O1     14.133765  -13.412834   26.478745 O    32 MOH    -0.6497 ****
499 HO1    14.101434  -14.372218   26.499958 H    32 MOH     0.4215 ****
500 HC1     3.838455  -12.915588   20.882702 H    33 MOH     0.0372 ****
501 C1      3.884066  -13.370376   19.892752 C    33 MOH     0.1166 ****
502 HC2     4.801476  -13.949272   19.783858 H    33 MOH     0.0372 ****
503 HC3     3.873674  -12.592663   19.129784 H    33 MOH     0.0372 ****
504 O1      2.780750  -14.206877   19.675671 O    33 MOH    -0.6497 ****
505 HO1     3.039980  -15.094409   19.933057 H    33 MOH     0.4215 ****
506 HC1    11.945608  -17.472455   19.377979 H    34 MOH     0.0372 ****
507 C1     12.144216  -16.511847   19.852447 C    34 MOH     0.1166 ****
508 HC2    13.208850  -16.294659   19.769009 H    34 MOH     0.0372 ****
509 HC3    11.915008  -16.546956   20.917350 H    34 MOH     0.0372 ****
510 O1     11.350937  -15.516129   19.201202 O    34 MOH    -0.6497 ****
511 HO1    11.398280  -14.740049   19.764766 H    34 MOH     0.4215 ****
512 HC1    10.786866  -22.939716   24.389952 H    35 MOH     0.0372 ****
513 C1     10.834209  -22.216300   25.204539 C    35 MOH     0.1166 ****
514 HC2    10.040929  -21.488802   25.033419 H    35 MOH     0.0372 ****
515 HC3    11.794919  -21.702724   25.157870 H    35 MOH     0.0372 ****
516 O1     10.648879  -22.858067   26.498544 O    35 MOH    -0.6497 ****
517 HO1    10.457199  -22.182416   27.154032 H    35 MOH     0.4215 ****
518 HC1    -5.533672  -19.096875   22.967960 H    36 MOH     0.0372 ****
519 C1     -5.490948  -18.855192   24.030034 C    36 MOH     0.1166 ****
520 HC2    -4.454027  -18.917246   24.360960 H    36 MOH     0.0372 ****
521 HC3    -6.088505  -19.556971   24.611983 H    36 MOH     0.0372 ****
522 O1     -5.924538  -17.561453   24.299442 O    36 MOH    -0.6497 ****
523 HO1    -6.694146  -17.369985   23.758505 H    36 MOH     0.4215 ****
524 HC1     5.452149   -9.601020   28.452280 H    37 MOH     0.0372 ****
525 C1      4.786464   -8.742065   28.537133 C    37 MOH     0.1166 ****
526 HC2     3.744347   -9.062132   28.530062 H    37 MOH     0.0372 ****
527 HC3     4.921564   -8.117446   27.654663 H    37 MOH     0.0372 ****
528 O1      5.012208   -7.945165   29.740628 O    37 MOH    -0.6497 ****
529 HO1     4.939462   -8.512222   30.510668 H    37 MOH     0.4215 ****
530 HC1    -2.224300  -16.987456   23.354747 H    38 MOH     0.0372 ****
531 C1     -2.764700  -16.117887   22.981395 C    38 MOH     0.1166 ****
532 HC2    -3.208105  -16.447344   22.041650 H    38 MOH     0.0372 ****
533 HC3    -2.041857  -15.314863   22.835024 H    38 MOH     0.0372 ****
534 O1     -3.756010  -15.779449   23.974880 O    38 MOH    -0.6497 ****
535 HO1    -4.391673  -16.493476   24.057611 H    38 MOH     0.4215 ****
536 HC1    -3.780836  -23.759479   19.045638 H    39 MOH     0.0372 ****
537 C1     -3.368031  -22.751922   19.008869 C    39 MOH     0.1166 ****
538 HC2    -3.453479  -22.281212   19.988212 H    39 MOH     0.0372 ****
539 HC3    -3.944804  -22.164045   18.294691 H    39 MOH     0.0372 ****
540 O1     -2.028578  -22.807444   18.577534 O    39 MOH    -0.6497 ****
541 HO1    -1.995092  -23.467990   17.881741 H    39 MOH     0.4215 ****
542 HC1    12.332432  -25.602720   24.994528 H    40 MOH     0.0372 ****
543 C1     11.652314  -26.171410   25.628803 C    40 MOH     0.1166 ****
544 HC2    12.006807  -26.134259   26.659057 H    40 MOH     0.0372 ****
545 HC3    11.597466  -27.207952   25.297170 H    40 MOH     0.0372 ****
546 O1     10.419671  -25.548423   25.546778 O    40 MOH    -0.6497 ****
547 HO1    10.521862  -24.655584   25.882654 H    40 MOH     0.4215 ****
548 HC1     2.392770   -5.347073   31.185955 H    41 MOH     0.0372 ****
549 C1      1.938396   -5.049051   30.241260 C    41 MOH     0.1166 ****
550 HC2     0.857596   -5.183773   30.289343 H    41 MOH     0.0372 ****
551 HC3     2.361016   -5.673671   29.453543 H    41 MOH     0.0372 ****
552 O1      2.220142   -3.691626   29.981752 O    41 MOH    -0.6497 ****
553 HO1     1.950520   -3.497300   29.080898 H    41 MOH     0.4215 ****
554 HC1     3.433733   -2.433405   34.309245 H    42 MOH     0.0372 ****
555 C1      3.091941   -3.102932   33.520114 C    42 MOH     0.1166 ****
556 HC2     2.593688   -3.979033   33.935893 H    42 MOH     0.0372 ****
557 HC3     3.964318   -3.420957   32.949479 H    42 MOH     0.0372 ****
558 O1      2.310786   -2.372984   32.598047 O    42 MOH    -0.6497 ****
559 HO1     2.337922   -2.860024   31.771439 H    42 MOH     0.4215 ****
560 HC1     6.200395  -19.139333   29.978216 H    43 MOH     0.0372 ****
561 C1      6.060099  -19.293651   28.909071 C    43 MOH     0.1166 ****
562 HC2     5.863800  -18.339166   28.419753 H    43 MOH     0.0372 ****
563 HC3     5.225828  -19.972568   28.733001 H    43 MOH     0.0372 ****
564 O1      7.235584  -19.848052   28.357528 O    43 MOH    -0.6497 ****
565 HO1     7.882217  -19.948889   29.059685 H    43 MOH     0.4215 ****
566 HC1     8.963594  -11.102965   31.268686 H    44 MOH     0.0372 ****
567 C1      9.446258  -12.068881   31.121608 C    44 MOH     0.1166 ****
568 HC2     8.673186  -12.822915   30.973823 H    44 MOH     0.0372 ****
569 HC3    10.010907  -12.311380   32.021048 H    44 MOH     0.0372 ****
570 O1     10.354430  -12.041120   29.998723 O    44 MOH    -0.6497 ****
571 HO1    11.065726  -11.436912   30.227825 H    44 MOH     0.4215 ****
572 HC1     3.656590  -19.345498   22.609457 H    45 MOH     0.0372 ****
573 C1      3.495509  -20.358362   22.977859 C    45 MOH     0.1166 ****
574 HC2     2.744377  -20.313455   23.765576 H    45 MOH     0.0372 ****
575 HC3     4.420424  -20.758854   23.392931 H    45 MOH     0.0372 ****
576 O1      3.044021  -21.205069   21.921442 O    45 MOH    -0.6497 ****
577 HO1     3.448744  -22.063207   22.071348 H    45 MOH     0.4215 ****
578 HC1     7.457864   -6.301557   22.396617 H    46 MOH     0.0372 ****
579 C1      6.877050   -5.920253   23.236660 C    46 MOH     0.1166 ****
580 HC2     7.174385   -4.913105   23.528695 H    46 MOH     0.0372 ****
581 HC3     7.084896   -6.575492   24.083067 H    46 MOH     0.0372 ****
582 O1      5.497760   -5.963936   22.951696 O    46 MOH    -0.6497 ****
583 HO1     5.092460   -6.638770   23.501118 H    46 MOH     0.4215 ****
584 HC1    12.255645  -19.090343   29.042007 H    47 MOH     0.0372 ****
585 C1     12.238902  -20.097492   28.624107 C    47 MOH     0.1166 ****
586 HC2    12.740619  -20.755996   29.331921 H    47 MOH     0.0372 ****
587 HC3    12.790271  -20.126069   27.683655 H    47 MOH     0.0372 ****
588 O1     10.895985  -20.533093   28.474907 O    47 MOH    -0.6497 ****
589 HO1    10.404083  -20.272222   29.257675 H    47 MOH     0.4215 ****
590 HC1     6.390343  -15.299349   28.173680 H    48 MOH     0.0372 ****
591 C1      5.326864  -15.098491   28.042158 C    48 MOH     0.1166 ****
592 HC2     4.744895  -16.019499   28.069028 H    48 MOH     0.0372 ****
593 HC3     5.161742  -14.627781   27.072715 H    48 MOH     0.0372 ****
594 O1      4.876531  -14.208102   29.021501 O    48 MOH    -0.6497 ****
595 HO1     4.986805  -13.313630   28.691282 H    48 MOH     0.4215 ****
596 HC1    10.103283  -12.371801   25.377073 H    49 MOH     0.0372 ****
597 C1      9.699138  -12.026015   24.426014 C    49 MOH     0.1166 ****
598 HC2     8.766140  -12.549389   24.213882 H    49 MOH     0.0372 ****
599 HC3    10.420248  -12.170943   23.622034 H    49 MOH     0.0372 ****
600 O1      9.452609  -10.660016   24.580163 O    49 MOH    -0.6497 ****
601 HO1    10.277065  -10.204411   24.768254 H    49 MOH     0.4215 ****
602 HC1     5.300884  -11.699824   22.913513 H    50 MOH     0.0372 ****
603 C1      5.063593  -11.986415   23.938817 C    50 MOH     0.1166 ****
604 HC2     5.825695  -12.649002   24.348232 H    50 MOH     0.0372 ****
605 HC3     4.110387  -12.515096   23.919725 H    50 MOH     0.0372 ****
606 O1      4.961979  -10.860058   24.776739 O    50 MOH    -0.6497 ****
607 HO1     5.735628  -10.303615   24.657238 H    50 MOH     0.4215 ****
608 HC1    12.342825  -10.484469   23.710422 H    51 MOH     0.0372 ****
609 C1     12.763136   -9.601020   24.191255 C    51 MOH     0.1166 ****
610 HC2    13.016593   -8.859233   23.433943 H    51 MOH     0.0372 ****
611 HC3    13.649946   -9.883936   24.757647 H    51 MOH     0.0372 ****
612 O1     11.757969   -9.104590   25.014327 O    51 MOH    -0.6497 ****
613 HO1    12.114194   -8.908222   25.883361 H    51 MOH     0.4215 ****
614 HC1     6.694030   -8.176641   36.286316 H    52 MOH     0.0372 ****
615 C1      6.651306   -7.302582   35.636485 C    52 MOH     0.1166 ****
616 HC2     7.452091   -6.602436   35.874780 H    52 MOH     0.0372 ****
617 HC3     5.711957   -6.786556   35.831646 H    52 MOH     0.0372 ****
618 O1      6.651883   -7.656941   34.244899 O    52 MOH    -0.6497 ****
619 HO1     6.761002   -6.864531   33.713861 H    52 MOH     0.4215 ****
620 HC1     1.007707  -12.446102   24.900483 H    53 MOH     0.0372 ****
621 C1      0.425160  -13.318937   25.196053 C    53 MOH     0.1166 ****
622 HC2     0.761178  -14.233821   24.708857 H    53 MOH     0.0372 ****
623 HC3    -0.595017  -13.138900   24.858763 H    53 MOH     0.0372 ****
624 O1      0.418232  -13.465906   26.598953 O    53 MOH    -0.6497 ****
625 HO1     0.231748  -12.604094   26.980084 H    53 MOH     0.4215 ****
626 HC1     0.176900  -15.460608   29.171408 H    54 MOH     0.0372 ****
627 C1      1.208625  -15.744340   28.965639 C    54 MOH     0.1166 ****
628 HC2     1.479402  -16.570226   29.622542 H    54 MOH     0.0372 ****
629 HC3     1.856989  -14.893551   29.176357 H    54 MOH     0.0372 ****
630 O1      1.346612  -16.063590   27.603752 O    54 MOH    -0.6497 ****
631 HO1     1.049853  -15.270772   27.151203 H    54 MOH     0.4215 ****
632 HC1     5.670965  -16.188106   23.484855 H    55 MOH     0.0372 ****
633 C1      5.685399  -15.480612   22.655419 C    55 MOH     0.1166 ****
634 HC2     4.694666  -15.049502   22.513997 H    55 MOH     0.0372 ****
635 HC3     6.024303  -15.973776   21.744665 H    55 MOH     0.0372 ****
636 O1      6.562394  -14.428964   22.962303 O    55 MOH    -0.6497 ****
637 HO1     6.758693  -14.422024   23.902048 H    55 MOH     0.4215 ****
638 HC1    -0.532664  -11.705948   30.368539 H    56 MOH     0.0372 ****
639 C1     -0.772264  -12.338733   31.222724 C    56 MOH     0.1166 ****
640 HC2    -1.817845  -12.214217   31.503446 H    56 MOH     0.0372 ****
641 HC3    -0.140065  -12.031322   32.056403 H    56 MOH     0.0372 ****
642 O1     -0.470310  -13.688810   30.906648 O    56 MOH    -0.6497 ****
643 HO1    -0.932767  -13.961928   30.111152 H    56 MOH     0.4215 ****
644 HC1    -3.126121  -19.644336   21.268782 H    57 MOH     0.0372 ****
645 C1     -2.338038  -19.610043   20.516421 C    57 MOH     0.1166 ****
646 HC2    -2.758349  -19.218533   19.589404 H    57 MOH     0.0372 ****
647 HC3    -1.940244  -20.607802   20.329744 H    57 MOH     0.0372 ****
648 O1     -1.331716  -18.709856   20.866438 O    57 MOH    -0.6497 ****
649 HO1    -0.504373  -19.174851   20.722896 H    57 MOH     0.4215 ****
650 HC1     0.077596  -20.264873   18.550664 H    58 MOH     0.0372 ****
651 C1      0.507722  -20.834788   19.375150 C    58 MOH     0.1166 ****
652 HC2     1.283103  -21.478596   18.960079 H    58 MOH     0.0372 ****
653 HC3    -0.237638  -21.483495   19.835477 H    58 MOH     0.0372 ****
654 O1      1.076989  -19.940316   20.314895 O    58 MOH    -0.6497 ****
655 HO1     1.491526  -20.479612   20.991596 H    58 MOH     0.4215 ****
656 HC1    10.424867  -11.549589   20.836033 H    59 MOH     0.0372 ****
657 C1     11.168494  -12.070514   20.233578 C    59 MOH     0.1166 ****
658 HC2    12.084172  -11.481003   20.185495 H    59 MOH     0.0372 ****
659 HC3    10.832477  -12.191764   19.203323 H    59 MOH     0.0372 ****
660 O1     11.506822  -13.299341   20.817648 O    59 MOH    -0.6497 ****
661 HO1    10.803032  -13.570826   21.410911 H    59 MOH     0.4215 ****
662 HC1    11.140781  -17.226690   25.495867 H    60 MOH     0.0372 ****
663 C1     11.101522  -18.296300   25.290806 C    60 MOH     0.1166 ****
664 HC2    10.323254  -18.724553   25.922252 H    60 MOH     0.0372 ****
665 HC3    12.070315  -18.732718   25.534757 H    60 MOH     0.0372 ****
666 O1     10.812847  -18.588198   23.922554 O    60 MOH    -0.6497 ****
667 HO1    11.242395  -19.402653   23.650318 H    60 MOH     0.4215 ****
668 HC1    15.302322  -18.546556   23.249388 H    61 MOH     0.0372 ****
669 C1     14.779820  -17.617383   23.477077 C    61 MOH     0.1166 ****
670 HC2    13.747518  -17.830489   23.755677 H    61 MOH     0.0372 ****
671 HC3    14.820235  -16.971126   22.600971 H    61 MOH     0.0372 ****
672 O1     15.467444  -17.054001   24.543394 O    61 MOH    -0.6497 ****
673 HO1    15.929902  -17.769252   24.986043 H    61 MOH     0.4215 ****
674 HC1    10.175452  -16.402028   22.868258 H    62 MOH     0.0372 ****
675 C1      9.238412  -16.146056   22.375404 C    62 MOH     0.1166 ****
676 HC2     8.400100  -16.477962   22.988466 H    62 MOH     0.0372 ****
677 HC3     9.219937  -16.644936   21.406668 H    62 MOH     0.0372 ****
678 O1      9.207813  -14.762503   22.158323 O    62 MOH    -0.6497 ****
679 HO1     8.291558  -14.521228   22.006295 H    62 MOH     0.4215 ****
680 HC1     6.845873  -21.111989   21.160595 H    63 MOH     0.0372 ****
681 C1      7.151291  -22.092193   20.793606 C    63 MOH     0.1166 ****
682 HC2     8.100455  -22.012584   20.263984 H    63 MOH     0.0372 ****
683 HC3     6.384570  -22.484519   20.126805 H    63 MOH     0.0372 ****
684 O1      7.304866  -23.012793   21.867702 O    63 MOH    -0.6497 ****
685 HO1     8.154149  -23.446761   21.759514 H    63 MOH     0.4215 ****
686 HC1    -4.027365   -9.868014   30.534002 H    64 MOH     0.0372 ****
687 C1     -3.164804   -9.405061   30.054584 C    64 MOH     0.1166 ****
688 HC2    -2.377875   -9.290343   30.800581 H    64 MOH     0.0372 ****
689 HC3    -3.481769   -8.413017   29.732143 H    64 MOH     0.0372 ****
690 O1     -2.782020  -10.192572   28.895636 O    64 MOH    -0.6497 ****
691 HO1    -3.475995  -10.146440   28.234491 H    64 MOH     0.4215 ****
692 HC1     4.131749  -17.436529   16.085689 H    65 MOH     0.0372 ****
693 C1      5.055510  -17.248327   15.537682 C    65 MOH     0.1166 ****
694 HC2     5.646139  -18.163211   15.575158 H    65 MOH     0.0372 ****
695 HC3     5.578012  -16.424890   16.024878 H    65 MOH     0.0372 ****
696 O1      4.782423  -16.896009   14.183572 O    65 MOH    -0.6497 ****
697 HO1     5.564155  -16.473880   13.820119 H    65 MOH     0.4215 ****
698 HC1     8.239596   -8.180724   26.106807 H    66 MOH     0.0372 ****
699 C1      7.224615   -8.564069   26.002862 C    66 MOH     0.1166 ****
700 HC2     6.503504   -7.746756   26.024075 H    66 MOH     0.0372 ****
701 HC3     6.989633   -9.258908   26.808964 H    66 MOH     0.0372 ****
702 O1      7.097020   -9.276054   24.820580 O    66 MOH    -0.6497 ****
703 HO1     7.817553   -9.909247   24.788760 H    66 MOH     0.4215 ****
704 HC1     1.718425  -22.174659   26.996347 H    67 MOH     0.0372 ****
705 C1      2.575213  -22.432672   26.372679 C    67 MOH     0.1166 ****
706 HC2     2.761120  -21.639445   25.649309 H    67 MOH     0.0372 ****
707 HC3     2.329262  -23.336534   25.815479 H    67 MOH     0.0372 ****
708 O1      3.738574  -22.623324   27.173831 O    67 MOH    -0.6497 ****
709 HO1     4.434858  -22.971151   26.612388 H    67 MOH     0.4215 ****
710 HC1     7.773097  -22.514730   26.179639 H    68 MOH     0.0372 ****
711 C1      7.274844  -23.290402   25.599811 C    68 MOH     0.1166 ****
712 HC2     8.001728  -24.035863   25.277371 H    68 MOH     0.0372 ****
713 HC3     6.812387  -22.816425   24.733605 H    68 MOH     0.0372 ****
714 O1      6.299699  -23.921145   26.396721 O    68 MOH    -0.6497 ****
715 HO1     6.771395  -24.290202   27.146254 H    68 MOH     0.4215 ****
716 HC1    11.113646  -16.462857   33.366672 H    69 MOH     0.0372 ****
717 C1     10.491262  -15.568385   33.357480 C    69 MOH     0.1166 ****
718 HC2    10.935245  -14.781282   33.967006 H    69 MOH     0.0372 ****
719 HC3     9.519582  -15.846402   33.766895 H    69 MOH     0.0372 ****
720 O1     10.311706  -15.115638   32.035897 O    69 MOH    -0.6497 ****
721 HO1    11.169072  -14.840070   31.702850 H    69 MOH     0.4215 ****
722 HC1     7.097598  -10.815967   21.886086 H    70 MOH     0.0372 ****
723 C1      7.690536  -11.154405   21.036851 C    70 MOH     0.1166 ****
724 HC2     8.057731  -12.150122   21.285046 H    70 MOH     0.0372 ****
725 HC3     8.537509  -10.484469   20.884823 H    70 MOH     0.0372 ****
726 O1      6.886287  -11.205436   19.866589 O    70 MOH    -0.6497 ****
727 HO1     7.293319  -11.855775   19.288883 H    70 MOH     0.4215 ****
728 HC1     2.854073  -10.495084   27.548597 H    71 MOH     0.0372 ****
729 C1      3.035361  -11.533259   27.827905 C    71 MOH     0.1166 ****
730 HC2     2.376027  -12.170535   27.238885 H    71 MOH     0.0372 ****
731 HC3     2.810772  -11.687985   28.883615 H    71 MOH     0.0372 ****
732 O1      4.365576  -11.928852   27.586781 O    71 MOH    -0.6497 ****
733 HO1     4.545132  -11.820666   26.649865 H    71 MOH     0.4215 ****
734 HC1     6.742527  -16.283228   31.207168 H    72 MOH     0.0372 ****
735 C1      7.196324  -15.403861   31.663959 C    72 MOH     0.1166 ****
736 HC2     8.033482  -15.087060   31.041705 H    72 MOH     0.0372 ****
737 HC3     7.500011  -15.652892   32.680779 H    72 MOH     0.0372 ****
738 O1      6.246006  -14.406102   31.628604 O    72 MOH    -0.6497 ****
739 HO1     5.918071  -14.350580   30.727750 H    72 MOH     0.4215 ****
740 HC1    -1.424670   -4.810634   28.877958 H    73 MOH     0.0372 ****
741 C1     -2.332264   -4.874321   29.477585 C    73 MOH     0.1166 ****
742 HC2    -2.943101   -5.721028   29.165043 H    73 MOH     0.0372 ****
743 HC3    -2.881325   -3.942290   29.345356 H    73 MOH     0.0372 ****
744 O1     -1.960451   -5.057625   30.801996 O    73 MOH    -0.6497 ****
745 HO1    -1.433330   -5.860241   30.800581 H    73 MOH     0.4215 ****
746 HC1     6.112061  -18.882136   23.854672 H    74 MOH     0.0372 ****
747 C1      7.039285  -19.058908   24.398437 C    74 MOH     0.1166 ****
748 HC2     6.973467  -19.983590   24.971900 H    74 MOH     0.0372 ****
749 HC3     7.262720  -18.222407   25.060996 H    74 MOH     0.0372 ****
750 O1      8.042720  -19.160970   23.467884 O    74 MOH    -0.6497 ****
751 HO1     8.852742  -18.820083   23.854672 H    74 MOH     0.4215 ****
752 HC1     4.015125  -18.738025   18.581776 H    75 MOH     0.0372 ****
753 C1      4.295139  -19.646377   19.115642 C    75 MOH     0.1166 ****
754 HC2     5.103430  -20.141991   18.578241 H    75 MOH     0.0372 ****
755 HC3     3.464332  -20.352239   19.138977 H    75 MOH     0.0372 ****
756 O1      4.732771  -19.385098   20.435103 O    75 MOH    -0.6497 ****
757 HO1     4.385206  -20.089735   20.986647 H    75 MOH     0.4215 ****
758 HC1    14.958799  -16.439587   28.007510 H    76 MOH     0.0372 ****
759 C1     13.949013  -16.760470   27.751537 C    76 MOH     0.1166 ****
760 HC2    13.251574  -16.329768   28.470665 H    76 MOH     0.0372 ****
761 HC3    13.867607  -17.846819   27.786185 H    76 MOH     0.0372 ****
762 O1     13.593943  -16.301191   26.479452 O    76 MOH    -0.6497 ****
763 HO1    14.192655  -16.708623   25.850127 H    76 MOH     0.4215 ****
764 HC1    10.762040   -9.331168   29.281716 H    77 MOH     0.0372 ****
765 C1     10.269560   -8.894750   28.412682 C    77 MOH     0.1166 ****
766 HC2     9.327324   -8.407302   28.662998 H    77 MOH     0.0372 ****
767 HC3    10.017258   -9.729210   27.757901 H    77 MOH     0.0372 ****
768 O1     11.107295   -7.969660   27.712646 O    77 MOH    -0.6497 ****
769 HO1    10.566318   -7.269922   27.340708 H    77 MOH     0.4215 ****
770 HC1     8.669722  -29.548031   25.759617 H    78 MOH     0.0372 ****
771 C1      8.636813  -28.462907   25.660623 C    78 MOH     0.1166 ****
772 HC2     9.081950  -27.993830   26.538142 H    78 MOH     0.0372 ****
773 HC3     7.599315  -28.137125   25.585669 H    78 MOH     0.0372 ****
774 O1      9.322706  -28.085686   24.495311 O    78 MOH    -0.6497 ****
775 HO1     9.424319  -27.132426   24.535616 H    78 MOH     0.4215 ****
776 HC1     9.637361  -16.167285   28.927456 H    79 MOH     0.0372 ****
777 C1     10.300737  -16.989089   29.196863 C    79 MOH     0.1166 ****
778 HC2    11.316873  -16.602886   29.274645 H    79 MOH     0.0372 ****
779 HC3    10.286880  -17.771701   28.438138 H    79 MOH     0.0372 ****
780 O1      9.922572  -17.416117   30.483798 O    79 MOH    -0.6497 ****
781 HO1     9.976266  -16.646977   31.055140 H    79 MOH     0.4215 ****
782 HC1    13.417274   -9.968035   33.030796 H    80 MOH     0.0372 ****
783 C1     13.077792  -10.713905   32.311669 C    80 MOH     0.1166 ****
784 HC2    12.571455  -11.551222   32.793209 H    80 MOH     0.0372 ****
785 HC3    13.964602  -11.110722   31.816694 H    80 MOH     0.0372 ****
786 O1     12.236592  -10.093367   31.357075 O    80 MOH    -0.6497 ****
787 HO1    12.766022   -9.408327   30.941296 H    80 MOH     0.4215 ****
788 HC1     4.123666  -17.204236   24.049833 H    81 MOH     0.0372 ****
789 C1      3.493200  -17.517771   24.881391 C    81 MOH     0.1166 ****
790 HC2     2.516901  -17.830489   24.510867 H    81 MOH     0.0372 ****
791 HC3     3.322881  -16.690660   25.571527 H    81 MOH     0.0372 ****
792 O1      4.095376  -18.571868   25.577184 O    81 MOH    -0.6497 ****
793 HO1     3.444702  -18.926227   26.186710 H    81 MOH     0.4215 ****
794 HC1     6.785828  -12.471822   27.193630 H    82 MOH     0.0372 ****
795 C1      7.442276  -12.196254   28.018824 C    82 MOH     0.1166 ****
796 HC2     6.895525  -12.232180   28.962104 H    82 MOH     0.0372 ****
797 HC3     7.788686  -11.173592   27.868210 H    82 MOH     0.0372 ****
798 O1      8.561180  -13.068273   28.083877 O    82 MOH    -0.6497 ****
799 HO1     9.166244  -12.741674   28.754215 H    82 MOH     0.4215 ****
800 HC1    10.562276   -7.756962   34.961198 H    83 MOH     0.0372 ****
801 C1     10.250507   -8.175825   35.918620 C    83 MOH     0.1166 ****
802 HC2     9.723386   -7.429547   36.511176 H    83 MOH     0.0372 ****
803 HC3    11.143091   -8.509364   36.446829 H    83 MOH     0.0372 ****
804 O1      9.435866   -9.289935   35.691639 O    83 MOH    -0.6497 ****
805 HO1     8.749974   -9.048660   35.065850 H    83 MOH     0.4215 ****
806 HC1     3.242052   -2.362778   27.241713 H    84 MOH     0.0372 ****
807 C1      2.334458   -1.983107   26.772194 C    84 MOH     0.1166 ****
808 HC2     2.464939   -2.003111   25.689614 H    84 MOH     0.0372 ****
809 HC3     2.191275   -0.952280   27.093928 H    84 MOH     0.0372 ****
810 O1      1.194191   -2.776333   27.146254 O    84 MOH    -0.6497 ****
811 HO1     0.421119   -2.271330   26.883917 H    84 MOH     0.4215 ****
812 HC1     5.399610  -10.832705   33.753459 H    85 MOH     0.0372 ****
813 C1      5.981579  -10.590205   32.863919 C    85 MOH     0.1166 ****
814 HC2     5.945206  -11.412009   32.149034 H    85 MOH     0.0372 ****
815 HC3     7.008686  -10.446910   33.201209 H    85 MOH     0.0372 ****
816 O1      5.515658   -9.345865   32.332175 O    85 MOH    -0.6497 ****
817 HO1     5.931350   -8.668581   32.870283 H    85 MOH     0.4215 ****
818 HC1     2.616205  -15.503882   22.089026 H    86 MOH     0.0372 ****
819 C1      2.482837  -16.526544   21.736180 C    86 MOH     0.1166 ****
820 HC2     1.484021  -16.604111   21.307673 H    86 MOH     0.0372 ****
821 HC3     2.556160  -17.243428   22.553595 H    86 MOH     0.0372 ****
822 O1      3.403133  -16.803744   20.724310 O    86 MOH    -0.6497 ****
823 HO1     3.519181  -17.751697   20.632386 H    86 MOH     0.4215 ****
824 HC1     4.803208  -24.778467   21.046751 H    87 MOH     0.0372 ****
825 C1      4.066509  -24.432680   21.771535 C    87 MOH     0.1166 ****
826 HC2     3.795731  -25.240604   22.452479 H    87 MOH     0.0372 ****
827 HC3     3.157759  -24.133026   21.251105 H    87 MOH     0.0372 ****
828 O1      4.506450  -23.351231   22.565616 O    87 MOH    -0.6497 ****
829 HO1     5.453881  -23.419816   22.701381 H    87 MOH     0.4215 ****
830 HC1     5.751794   -8.223182   21.398890 H    88 MOH     0.0372 ****
831 C1      4.904244   -8.887810   21.568595 C    88 MOH     0.1166 ****
832 HC2     4.038796   -8.244003   21.724866 H    88 MOH     0.0372 ****
833 HC3     5.136916   -9.489568   22.446822 H    88 MOH     0.0372 ****
834 O1      4.770876   -9.589589   20.353079 O    88 MOH    -0.6497 ****
835 HO1     5.616694   -9.995388   20.148018 H    88 MOH     0.4215 ****
836 HC1    -4.881843  -13.533267   27.497686 H    89 MOH     0.0372 ****
837 C1     -5.048120  -12.462840   27.616480 C    89 MOH     0.1166 ****
838 HC2    -4.694782  -12.141957   28.596530 H    89 MOH     0.0372 ****
839 HC3    -6.115063  -12.249735   27.544355 H    89 MOH     0.0372 ****
840 O1     -4.361073  -11.748406   26.606731 O    89 MOH    -0.6497 ****
841 HO1    -4.451717  -12.278312   25.811943 H    89 MOH     0.4215 ****
842 HC1     1.781356   -7.217258   24.648753 H    90 MOH     0.0372 ****
843 C1      2.652578   -7.872497   24.629661 C    90 MOH     0.1166 ****
844 HC2     2.652001   -8.444044   23.701937 H    90 MOH     0.0372 ****
845 HC3     2.624865   -8.581624   25.457683 H    90 MOH     0.0372 ****
846 O1      3.830950   -7.087843   24.703200 O    90 MOH    -0.6497 ****
847 HO1     3.801505   -6.577125   25.515665 H    90 MOH     0.4215 ****
848 HC1    -2.403856  -13.982340   27.173831 H    91 MOH     0.0372 ****
849 C1     -2.136543  -14.987040   27.502635 C    91 MOH     0.1166 ****
850 HC2    -1.191998  -15.276488   27.042309 H    91 MOH     0.0372 ****
851 HC3    -2.899222  -15.700658   27.192923 H    91 MOH     0.0372 ****
852 O1     -1.969111  -14.979283   28.931698 O    91 MOH    -0.6497 ****
853 HO1    -2.797609  -14.791489   29.378590 H    91 MOH     0.4215 ****
854 HC1    15.529798  -12.845777   24.604205 H    92 MOH     0.0372 ****
855 C1     15.082929  -12.431813   23.700522 C    92 MOH     0.1166 ****
856 HC2    14.055246  -12.112972   23.872349 H    92 MOH     0.0372 ****
857 HC3    15.113529  -13.204219   22.931190 H    92 MOH     0.0372 ****
858 O1     15.893529  -11.367510   23.312321 O    92 MOH    -0.6497 ****
859 HO1    16.075394  -10.821274   24.080239 H    92 MOH     0.4215 ****
860 HC1     8.755748  -15.098083   19.198374 H    93 MOH     0.0372 ****
861 C1      7.831410  -14.582874   18.936744 C    93 MOH     0.1166 ****
862 HC2     7.118382  -14.629822   19.760523 H    93 MOH     0.0372 ****
863 HC3     7.395510  -15.029089   18.043668 H    93 MOH     0.0372 ****
864 O1      8.069278  -13.233613   18.657437 O    93 MOH    -0.6497 ****
865 HO1     8.573882  -13.203403   17.841436 H    93 MOH     0.4215 ****
866 HC1     0.477699   -7.904748   29.250603 H    94 MOH     0.0372 ****
867 C1      0.107040   -8.301565   30.195298 C    94 MOH     0.1166 ****
868 HC2     0.961519   -8.424448   30.860686 H    94 MOH     0.0372 ****
869 HC3    -0.364655   -9.277279   30.079333 H    94 MOH     0.0372 ****
870 O1     -0.748015   -7.366269   30.757448 O    94 MOH    -0.6497 ****
871 HO1    -0.563263   -7.364636   31.699314 H    94 MOH     0.4215 ****
872 HC1    -0.984729  -25.317763   19.737896 H    95 MOH     0.0372 ****
873 C1     -0.470887  -25.008719   20.647942 C    95 MOH     0.1166 ****
874 HC2     0.612222  -25.034846   20.531977 H    95 MOH     0.0372 ****
875 HC3    -0.773996  -25.648035   21.478086 H    95 MOH     0.0372 ****
876 O1     -0.910251  -23.751314   20.930785 O    95 MOH    -0.6497 ****
877 HO1    -1.242227  -23.389198   20.105592 H    95 MOH     0.4215 ****
878 HC1     0.475390   -6.490984   26.175396 H    96 MOH     0.0372 ****
879 C1      1.041771   -6.186023   27.055744 C    96 MOH     0.1166 ****
880 HC2     1.427441   -7.079678   27.547183 H    96 MOH     0.0372 ****
881 HC3     0.387633   -5.662240   27.752244 H    96 MOH     0.0372 ****
882 O1      2.136427   -5.371568   26.650572 O    96 MOH    -0.6497 ****
883 HO1     1.785398   -4.496283   26.473795 H    96 MOH     0.4215 ****
884 HC1     0.866833  -22.108931   23.471420 H    97 MOH     0.0372 ****
885 C1     -0.015358  -21.525544   23.732342 C    97 MOH     0.1166 ****
886 HC2     0.288906  -20.526969   24.043469 H    97 MOH     0.0372 ****
887 HC3    -0.550561  -22.015442   24.545515 H    97 MOH     0.0372 ****
888 O1     -0.836350  -21.470431   22.564909 O    97 MOH    -0.6497 ****
889 HO1    -0.926994  -22.359187   22.212063 H    97 MOH     0.4215 ****
890 HC1     7.710166   -8.363619   31.383238 H    98 MOH     0.0372 ****
891 C1      8.655866   -8.020691   31.803259 C    98 MOH     0.1166 ****
892 HC2     8.542128   -7.046202   32.279142 H    98 MOH     0.0372 ****
893 HC3     9.385637   -7.907198   31.001400 H    98 MOH     0.0372 ****
894 O1      9.097539   -8.942924   32.775531 O    98 MOH    -0.6497 ****
895 HO1     9.928923   -9.331168   32.493395 H    98 MOH     0.4215 ****
896 HC1     7.628182  -16.429381   26.453996 H    99 MOH     0.0372 ****
897 C1      8.409915  -15.756179   26.102564 C    99 MOH     0.1166 ****
898 HC2     8.969367  -16.190964   25.274542 H    99 MOH     0.0372 ****
899 HC3     9.095229  -15.551239   26.924222 H    99 MOH     0.0372 ****
900 O1      7.836029  -14.556746   25.657087 O    99 MOH    -0.6497 ****
901 HO1     8.031173  -13.913347   26.342980 H    99 MOH     0.4215 ****
902 HC1    12.528039    6.311519   26.725525 H    100 MOH     0.0372 ****
903 C1     11.491695    6.450323   27.032409 C    100 MOH     0.1166 ****
904 HC2    10.928201    6.814481   26.173982 H    100 MOH     0.0372 ****
905 HC3    11.421836    7.200275   27.820834 H    100 MOH     0.0372 ****
906 O1     10.966306    5.207615   27.449602 O    100 MOH    -0.6497 ****
907 HO1    10.203627    5.359892   28.011752 H    100 MOH     0.4215 ****
908 HC1     7.026468   -4.229452   30.816845 H    101 MOH     0.0372 ****
909 C1      6.225683   -4.623412   31.442634 C    101 MOH     0.1166 ****
910 HC2     5.659880   -5.353768   30.863514 H    101 MOH     0.0372 ****
911 HC3     5.553070   -3.846515   31.803966 H    101 MOH     0.0372 ****
912 O1      6.722782   -5.364382   32.487031 O    101 MOH    -0.6497 ****
913 HO1     7.267223   -4.768340   33.006048 H    101 MOH     0.4215 ****
914 HC1    18.757071   -9.094955   21.910128 H    102 MOH     0.0372 ****
915 C1     18.570009  -10.080875   22.335099 C    102 MOH     0.1166 ****
916 HC2    18.177988   -9.986161   23.347676 H    102 MOH     0.0372 ****
917 HC3    19.527256  -10.597309   22.403689 H    102 MOH     0.0372 ****
918 O1     17.728810  -10.884716   21.485864 O    102 MOH    -0.6497 ****
919 HO1    17.012896  -11.230910   22.023265 H    102 MOH     0.4215 ****
920 HC1    21.387479   -8.623020   28.547032 H    103 MOH     0.0372 ****
921 C1     20.538774   -8.188236   29.075241 C    103 MOH     0.1166 ****
922 HC2    20.402519   -7.161083   28.737244 H    103 MOH     0.0372 ****
923 HC3    20.703318   -8.200483   30.152872 H    103 MOH     0.0372 ****
924 O1     19.373103   -8.886340   28.741487 O    103 MOH    -0.6497 ****
925 HO1    19.400239   -9.686915   29.271110 H    103 MOH     0.4215 ****
926 HC1    20.281853   -1.547261   18.933209 H    104 MOH     0.0372 ****
927 C1     19.489728   -2.079617   19.459296 C    104 MOH     0.1166 ****
928 HC2    19.516864   -1.822012   20.517835 H    104 MOH     0.0372 ****
929 HC3    19.655428   -3.147186   19.317168 H    104 MOH     0.0372 ****
930 O1     18.261127   -1.664020   18.903510 O    104 MOH    -0.6497 ****
931 HO1    17.566575   -2.022870   19.461417 H    104 MOH     0.4215 ****
932 HC1    20.978137    6.343770   17.813858 H    105 MOH     0.0372 ****
933 C1     21.515650    6.686291   16.929268 C    105 MOH     0.1166 ****
934 HC2    21.187715    6.112294   16.062355 H    105 MOH     0.0372 ****
935 HC3    22.575088    6.501762   17.107459 H    105 MOH     0.0372 ****
936 O1     21.255265    8.066986   16.660567 O    105 MOH    -0.6497 ****
937 HO1    21.514496    8.271927   15.759713 H    105 MOH     0.4215 ****
938 HC1    24.346976    4.511552   26.456118 H    106 MOH     0.0372 ****
939 C1     24.395473    3.423979   26.405206 C    106 MOH     0.1166 ****
940 HC2    24.017309    3.069211   25.447076 H    106 MOH     0.0372 ****
941 HC3    23.788678    2.977355   27.192923 H    106 MOH     0.0372 ****
942 O1     25.732039    2.989602   26.478745 O    106 MOH    -0.6497 ****
943 HO1    25.699708    2.030219   26.499958 H    106 MOH     0.4215 ****
944 HC1    15.436729    3.486849   20.882702 H    107 MOH     0.0372 ****
945 C1     15.482340    3.032060   19.892752 C    107 MOH     0.1166 ****
946 HC2    16.399750    2.453164   19.783858 H    107 MOH     0.0372 ****
947 HC3    15.471948    3.809773   19.129784 H    107 MOH     0.0372 ****
948 O1     14.379024    2.195559   19.675671 O    107 MOH    -0.6497 ****
949 HO1    14.638254    1.308028   19.933057 H    107 MOH     0.4215 ****
950 HC1    23.543882   -1.070019   19.377979 H    108 MOH     0.0372 ****
951 C1     23.742490   -0.109410   19.852447 C    108 MOH     0.1166 ****
952 HC2    24.807124    0.107778   19.769009 H    108 MOH     0.0372 ****
953 HC3    23.513282   -0.144520   20.917350 H    108 MOH     0.0372 ****
954 O1     22.949211    0.886307   19.201202 O    108 MOH    -0.6497 ****
955 HO1    22.996554    1.662387   19.764766 H    108 MOH     0.4215 ****
956 HC1     6.238385    2.325382   31.983571 H    109 MOH     0.0372 ****
957 C1      7.278770    2.352735   31.657595 C    109 MOH     0.1166 ****
958 HC2     7.863048    1.713010   32.320154 H    109 MOH     0.0372 ****
959 HC3     7.619984    3.386420   31.711335 H    109 MOH     0.0372 ****
960 O1      7.345743    1.870594   30.334598 O    109 MOH    -0.6497 ****
961 HO1     6.751072    1.117784   30.290758 H    109 MOH     0.4215 ****
962 HC1     9.118785   -2.356817   27.823662 H    110 MOH     0.0372 ****
963 C1     10.033308   -2.050631   27.315959 C    110 MOH     0.1166 ****
964 HC2    10.628556   -1.396209   27.953063 H    110 MOH     0.0372 ****
965 HC3     9.757912   -1.504395   26.413691 H    110 MOH     0.0372 ****
966 O1     10.735366   -3.190052   26.917858 O    110 MOH    -0.6497 ****
967 HO1    11.670096   -2.991235   27.007661 H    110 MOH     0.4215 ****
968 HC1    22.385140   -6.537280   24.389952 H    111 MOH     0.0372 ****
969 C1     22.432483   -5.813864   25.204539 C    111 MOH     0.1166 ****
970 HC2    21.639203   -5.086365   25.033419 H    111 MOH     0.0372 ****
971 HC3    23.393193   -5.300287   25.157870 H    111 MOH     0.0372 ****
972 O1     22.247153   -6.455630   26.498544 O    111 MOH    -0.6497 ****
973 HO1    22.055473   -5.779979   27.154032 H    111 MOH     0.4215 ****
974 HC1     6.064602   -2.694439   22.967960 H    112 MOH     0.0372 ****
975 C1      6.107326   -2.452756   24.030034 C    112 MOH     0.1166 ****
976 HC2     7.144247   -2.514809   24.360960 H    112 MOH     0.0372 ****
977 HC3     5.509769   -3.154534   24.611983 H    112 MOH     0.0372 ****
978 O1      5.673736   -1.159017   24.299442 O    112 MOH    -0.6497 ****
979 HO1     4.904128   -0.967548   23.758505 H    112 MOH     0.4215 ****
980 HC1     3.461330    1.243116   30.683202 H    113 MOH     0.0372 ****
981 C1      3.026585    0.357626   31.146357 C    113 MOH     0.1166 ****
982 HC2     2.614357   -0.317209   30.396116 H    113 MOH     0.0372 ****
983 HC3     2.204438    0.643808   31.803259 H    113 MOH     0.0372 ****
984 O1      3.931871   -0.344970   31.941852 O    113 MOH    -0.6497 ****
985 HO1     3.405327   -1.062670   32.302476 H    113 MOH     0.4215 ****
986 HC1     9.373974   -0.585020   23.354747 H    114 MOH     0.0372 ****
987 C1      8.833574    0.284549   22.981395 C    114 MOH     0.1166 ****
988 HC2     8.390169   -0.044907   22.041650 H    114 MOH     0.0372 ****
989 HC3     9.556417    1.087574   22.835024 H    114 MOH     0.0372 ****
990 O1      7.842264    0.622987   23.974880 O    114 MOH    -0.6497 ****
991 HO1     7.206601   -0.091039   24.057611 H    114 MOH     0.4215 ****
992 HC1     7.817438   -7.357042   19.045638 H    115 MOH     0.0372 ****
993 C1      8.230243   -6.349486   19.008869 C    115 MOH     0.1166 ****
994 HC2     8.144796   -5.878775   19.988212 H    115 MOH     0.0372 ****
995 HC3     7.653470   -5.761608   18.294691 H    115 MOH     0.0372 ****
996 O1      9.569696   -6.405007   18.577534 O    115 MOH    -0.6497 ****
997 HO1     9.603182   -7.065553   17.881741 H    115 MOH     0.4215 ****
998 HC1    23.930707   -9.200283   24.994528 H    116 MOH     0.0372 ****
999 C1     23.250588   -9.768973   25.628803 C    116 MOH     0.1166 ****
1000 HC2    23.605081   -9.731823   26.659057 H    116 MOH     0.0372 ****
1001 HC3    23.195740  -10.805516   25.297170 H    116 MOH     0.0372 ****
1002 O1     22.017945   -9.145986   25.546778 O    116 MOH    -0.6497 ****
1003 HO1    22.120136   -8.253147   25.882654 H    116 MOH     0.4215 ****
1004 HC1    17.798669   -2.736896   29.978216 H    117 MOH     0.0372 ****
1005 C1     17.658373   -2.891214   28.909071 C    117 MOH     0.1166 ****
1006 HC2    17.462074   -1.936730   28.419753 H    117 MOH     0.0372 ****
1007 HC3    16.824102   -3.570131   28.733001 H    117 MOH     0.0372 ****
1008 O1     18.833858   -3.445615   28.357528 O    117 MOH    -0.6497 ****
1009 HO1    19.480491   -3.546453   29.059685 H    117 MOH     0.4215 ****
1010 HC1    15.254864   -2.943062   22.609457 H    118 MOH     0.0372 ****
1011 C1     15.093783   -3.955926   22.977859 C    118 MOH     0.1166 ****
1012 HC2    14.342651   -3.911018   23.765576 H    118 MOH     0.0372 ****
1013 HC3    16.018698   -4.356417   23.392931 H    118 MOH     0.0372 ****
1014 O1     14.642295   -4.802633   21.921442 O    118 MOH    -0.6497 ****
1015 HO1    15.047018   -5.660771   22.071348 H    118 MOH     0.4215 ****
1016 HC1    19.056138   10.100879   22.396617 H    119 MOH     0.0372 ****
1017 C1     18.475324   10.482183   23.236660 C    119 MOH     0.1166 ****
1018 HC2    18.772659   11.489332   23.528695 H    119 MOH     0.0372 ****
1019 HC3    18.683170    9.826945   24.083067 H    119 MOH     0.0372 ****
1020 O1     17.096034   10.438501   22.951696 O    119 MOH    -0.6497 ****
1021 HO1    16.690734    9.763666   23.501118 H    119 MOH     0.4215 ****
1022 HC1     7.633840   -0.255971   33.422533 H    120 MOH     0.0372 ****
1023 C1      7.242397   -1.025111   32.757853 C    120 MOH     0.1166 ****
1024 HC2     7.741805   -0.991227   31.789824 H    120 MOH     0.0372 ****
1025 HC3     6.170835   -0.862628   32.633402 H    120 MOH     0.0372 ****
1026 O1      7.383270   -2.291906   33.342630 O    120 MOH    -0.6497 ****
1027 HO1     6.936979   -2.292314   34.191866 H    120 MOH     0.4215 ****
1028 HC1    23.853919   -2.687907   29.042007 H    121 MOH     0.0372 ****
1029 C1     23.837176   -3.695055   28.624107 C    121 MOH     0.1166 ****
1030 HC2    24.338893   -4.353560   29.331921 H    121 MOH     0.0372 ****
1031 HC3    24.388545   -3.723632   27.683655 H    121 MOH     0.0372 ****
1032 O1     22.494259   -4.130656   28.474907 O    121 MOH    -0.6497 ****
1033 HO1    22.002357   -3.869785   29.257675 H    121 MOH     0.4215 ****
1034 HC1    17.988618    1.103087   28.173680 H    122 MOH     0.0372 ****
1035 C1     16.925138    1.303945   28.042158 C    122 MOH     0.1166 ****
1036 HC2    16.343169    0.382937   28.069028 H    122 MOH     0.0372 ****
1037 HC3    16.760016    1.774655   27.072715 H    122 MOH     0.0372 ****
1038 O1     16.474805    2.194335   29.021501 O    122 MOH    -0.6497 ****
1039 HO1    16.585079    3.088807   28.691282 H    122 MOH     0.4215 ****
1040 HC1    21.701557    4.030636   25.377073 H    123 MOH     0.0372 ****
1041 C1     21.297412    4.376422   24.426014 C    123 MOH     0.1166 ****
1042 HC2    20.364414    3.853048   24.213882 H    123 MOH     0.0372 ****
1043 HC3    22.018522    4.231494   23.622034 H    123 MOH     0.0372 ****
1044 O1     21.050883    5.742421   24.580163 O    123 MOH    -0.6497 ****
1045 HO1    21.875340    6.198026   24.768254 H    123 MOH     0.4215 ****
1046 HC1    17.469002   -7.225178   30.580671 H    124 MOH     0.0372 ****
1047 C1     17.283095   -6.639342   29.680525 C    124 MOH     0.1166 ****
1048 HC2    17.300993   -7.263145   28.786742 H    124 MOH     0.0372 ****
1049 HC3    18.030764   -5.853872   29.571630 H    124 MOH     0.0372 ****
1050 O1     16.040638   -6.051056   29.809925 O    124 MOH    -0.6497 ****
1051 HO1    15.742148   -5.940421   28.904121 H    124 MOH     0.4215 ****
1052 HC1    18.653725   -3.650148   31.999835 H    125 MOH     0.0372 ****
1053 C1     19.407744   -4.403774   31.772146 C    125 MOH     0.1166 ****
1054 HC2    18.921616   -5.293347   31.372631 H    125 MOH     0.0372 ****
1055 HC3    19.896760   -4.693222   32.701992 H    125 MOH     0.0372 ****
1056 O1     20.341897   -3.861620   30.827452 O    125 MOH    -0.6497 ****
1057 HO1    20.558404   -2.963882   31.086960 H    125 MOH     0.4215 ****
1058 HC1    16.899158    4.702612   22.913513 H    126 MOH     0.0372 ****
1059 C1     16.661867    4.416022   23.938817 C    126 MOH     0.1166 ****
1060 HC2    17.423969    3.753435   24.348232 H    126 MOH     0.0372 ****
1061 HC3    15.708661    3.887340   23.919725 H    126 MOH     0.0372 ****
1062 O1     16.560253    5.542379   24.776739 O    126 MOH    -0.6497 ****
1063 HO1    17.333902    6.098821   24.657238 H    126 MOH     0.4215 ****
1064 HC1    14.590334  -10.279692   29.265453 H    127 MOH     0.0372 ****
1065 C1     14.183302   -9.279075   29.120496 C    127 MOH     0.1166 ****
1066 HC2    13.137721   -9.324799   28.815026 H    127 MOH     0.0372 ****
1067 HC3    14.739868   -8.821429   28.303788 H    127 MOH     0.0372 ****
1068 O1     14.338032   -8.455230   30.277323 O    127 MOH    -0.6497 ****
1069 HO1    14.620933   -7.575047   30.017107 H    127 MOH     0.4215 ****
1070 HC1    13.996240   -5.874284   31.487889 H    128 MOH     0.0372 ****
1071 C1     14.084575   -4.888365   31.943973 C    128 MOH     0.1166 ****
1072 HC2    13.483553   -4.856521   32.851898 H    128 MOH     0.0372 ****
1073 HC3    13.732391   -4.153110   31.220603 H    128 MOH     0.0372 ****
1074 O1     15.424605   -4.684649   32.251565 O    128 MOH    -0.6497 ****
1075 HO1    15.909579   -5.151277   31.567792 H    128 MOH     0.4215 ****
1076 HC1    12.605981    3.956334   24.900483 H    129 MOH     0.0372 ****
1077 C1     12.023435    3.083500   25.196053 C    129 MOH     0.1166 ****
1078 HC2    12.359452    2.168615   24.708857 H    129 MOH     0.0372 ****
1079 HC3    11.003257    3.263537   24.858763 H    129 MOH     0.0372 ****
1080 O1     12.016506    2.936530   26.598953 O    129 MOH    -0.6497 ****
1081 HO1    11.830022    3.798342   26.980084 H    129 MOH     0.4215 ****
1082 HC1    11.775174    0.941829   29.171408 H    130 MOH     0.0372 ****
1083 C1     12.806899    0.658096   28.965639 C    130 MOH     0.1166 ****
1084 HC2    13.077676   -0.167790   29.622542 H    130 MOH     0.0372 ****
1085 HC3    13.455263    1.508886   29.176357 H    130 MOH     0.0372 ****
1086 O1     12.944886    0.338846   27.603752 O    130 MOH    -0.6497 ****
1087 HO1    12.648128    1.131664   27.151203 H    130 MOH     0.4215 ****
1088 HC1    17.269239    0.214331   23.484855 H    131 MOH     0.0372 ****
1089 C1     17.283673    0.921825   22.655419 C    131 MOH     0.1166 ****
1090 HC2    16.292940    1.352935   22.513997 H    131 MOH     0.0372 ****
1091 HC3    17.622578    0.428661   21.744665 H    131 MOH     0.0372 ****
1092 O1     18.160668    1.973472   22.962303 O    131 MOH    -0.6497 ****
1093 HO1    18.356967    1.980413   23.902048 H    131 MOH     0.4215 ****
1094 HC1    11.065610    4.696489   30.368539 H    132 MOH     0.0372 ****
1095 C1     10.826010    4.063704   31.222724 C    132 MOH     0.1166 ****
1096 HC2     9.780429    4.188219   31.503446 H    132 MOH     0.0372 ****
1097 HC3    11.458209    4.371115   32.056403 H    132 MOH     0.0372 ****
1098 O1     11.127964    2.713627   30.906648 O    132 MOH    -0.6497 ****
1099 HO1    10.665507    2.440508   30.111152 H    132 MOH     0.4215 ****
1100 HC1     8.472153   -3.241900   21.268782 H    133 MOH     0.0372 ****
1101 C1      9.260236   -3.207607   20.516421 C    133 MOH     0.1166 ****
1102 HC2     8.839925   -2.816097   19.589404 H    133 MOH     0.0372 ****
1103 HC3     9.658031   -4.205366   20.329744 H    133 MOH     0.0372 ****
1104 O1     10.266558   -2.307419   20.866438 O    133 MOH    -0.6497 ****
1105 HO1    11.093901   -2.772414   20.722896 H    133 MOH     0.4215 ****
1106 HC1    11.675870   -3.862437   18.550664 H    134 MOH     0.0372 ****
1107 C1     12.105996   -4.432352   19.375150 C    134 MOH     0.1166 ****
1108 HC2    12.881377   -5.076159   18.960079 H    134 MOH     0.0372 ****
1109 HC3    11.360637   -5.081058   19.835477 H    134 MOH     0.0372 ****
1110 O1     12.675263   -3.537880   20.314895 O    134 MOH    -0.6497 ****
1111 HO1    13.089801   -4.077176   20.991596 H    134 MOH     0.4215 ****
1112 HC1    22.023141    4.852848   20.836033 H    135 MOH     0.0372 ****
1113 C1     22.766768    4.331923   20.233578 C    135 MOH     0.1166 ****
1114 HC2    23.682446    4.921433   20.185495 H    135 MOH     0.0372 ****
1115 HC3    22.430751    4.210673   19.203323 H    135 MOH     0.0372 ****
1116 O1     23.105096    3.103095   20.817648 O    135 MOH    -0.6497 ****
1117 HO1    22.401306    2.831610   21.410911 H    135 MOH     0.4215 ****
1118 HC1    22.739056   -0.824253   25.495867 H    136 MOH     0.0372 ****
1119 C1     22.699796   -1.893864   25.290806 C    136 MOH     0.1166 ****
1120 HC2    21.921528   -2.322116   25.922252 H    136 MOH     0.0372 ****
1121 HC3    23.668590   -2.330281   25.534757 H    136 MOH     0.0372 ****
1122 O1     22.411121   -2.185761   23.922554 O    136 MOH    -0.6497 ****
1123 HO1    22.840669   -3.000217   23.650318 H    136 MOH     0.4215 ****
1124 HC1    26.900596   -2.144120   23.249388 H    137 MOH     0.0372 ****
1125 C1     26.378094   -1.214947   23.477077 C    137 MOH     0.1166 ****
1126 HC2    25.345792   -1.428052   23.755677 H    137 MOH     0.0372 ****
1127 HC3    26.418509   -0.568690   22.600971 H    137 MOH     0.0372 ****
1128 O1     27.065719   -0.651564   24.543394 O    137 MOH    -0.6497 ****
1129 HO1    27.528176   -1.366815   24.986043 H    137 MOH     0.4215 ****
1130 HC1    21.773726    0.000408   22.868258 H    138 MOH     0.0372 ****
1131 C1     20.836686    0.256380   22.375404 C    138 MOH     0.1166 ****
1132 HC2    19.998374   -0.075526   22.988466 H    138 MOH     0.0372 ****
1133 HC3    20.818211   -0.242499   21.406668 H    138 MOH     0.0372 ****
1134 O1     20.806087    1.639934   22.158323 O    138 MOH    -0.6497 ****
1135 HO1    19.889832    1.881208   22.006295 H    138 MOH     0.4215 ****
1136 HC1    11.827135   -0.701779   32.110143 H    139 MOH     0.0372 ****
1137 C1     10.817350   -0.302512   32.202067 C    139 MOH     0.1166 ****
1138 HC2    10.204781   -1.043891   32.715427 H    139 MOH     0.0372 ****
1139 HC3    10.416091   -0.110635   31.206461 H    139 MOH     0.0372 ****
1140 O1     10.885477    0.886307   32.964328 O    139 MOH    -0.6497 ****
1141 HO1    11.219763    1.579513   32.390158 H    139 MOH     0.4215 ****
1142 HC1    18.444147   -4.709552   21.160595 H    140 MOH     0.0372 ****
1143 C1     18.749565   -5.689756   20.793606 C    140 MOH     0.1166 ****
1144 HC2    19.698729   -5.610148   20.263984 H    140 MOH     0.0372 ****
1145 HC3    17.982844   -6.082083   20.126805 H    140 MOH     0.0372 ****
1146 O1     18.903140   -6.610356   21.867702 O    140 MOH    -0.6497 ****
1147 HO1    19.752423   -7.044324   21.759514 H    140 MOH     0.4215 ****
1148 HC1     7.570909    6.534422   30.534002 H    141 MOH     0.0372 ****
1149 C1      8.433471    6.997376   30.054584 C    141 MOH     0.1166 ****
1150 HC2     9.220399    7.112094   30.800581 H    141 MOH     0.0372 ****
1151 HC3     8.116505    7.989419   29.732143 H    141 MOH     0.0372 ****
1152 O1      8.816254    6.209865   28.895636 O    141 MOH    -0.6497 ****
1153 HO1     8.122279    6.255997   28.234491 H    141 MOH     0.4215 ****
1154 HC1    15.730023   -1.034093   16.085689 H    142 MOH     0.0372 ****
1155 C1     16.653784   -0.845890   15.537682 C    142 MOH     0.1166 ****
1156 HC2    17.244413   -1.760775   15.575158 H    142 MOH     0.0372 ****
1157 HC3    17.176286   -0.022454   16.024878 H    142 MOH     0.0372 ****
1158 O1     16.380697   -0.493572   14.183572 O    142 MOH    -0.6497 ****
1159 HO1    17.162429   -0.071443   13.820119 H    142 MOH     0.4215 ****
1160 HC1    19.837870    8.221712   26.106807 H    143 MOH     0.0372 ****
1161 C1     18.822889    7.838367   26.002862 C    143 MOH     0.1166 ****
1162 HC2    18.101778    8.655680   26.024075 H    143 MOH     0.0372 ****
1163 HC3    18.587907    7.143529   26.808964 H    143 MOH     0.0372 ****
1164 O1     18.695294    7.126382   24.820580 O    143 MOH    -0.6497 ****
1165 HO1    19.415827    6.493189   24.788760 H    143 MOH     0.4215 ****
1166 HC1    13.316699   -5.772222   26.996347 H    144 MOH     0.0372 ****
1167 C1     14.173487   -6.030235   26.372679 C    144 MOH     0.1166 ****
1168 HC2    14.359394   -5.237009   25.649309 H    144 MOH     0.0372 ****
1169 HC3    13.927536   -6.934097   25.815479 H    144 MOH     0.0372 ****
1170 O1     15.336848   -6.220887   27.173831 O    144 MOH    -0.6497 ****
1171 HO1    16.033132   -6.568715   26.612388 H    144 MOH     0.4215 ****
1172 HC1    19.371371   -6.112293   26.179639 H    145 MOH     0.0372 ****
1173 C1     18.873118   -6.887965   25.599811 C    145 MOH     0.1166 ****
1174 HC2    19.600002   -7.633426   25.277371 H    145 MOH     0.0372 ****
1175 HC3    18.410661   -6.413989   24.733605 H    145 MOH     0.0372 ****
1176 O1     17.897974   -7.518709   26.396721 O    145 MOH    -0.6497 ****
1177 HO1    18.369669   -7.887765   27.146254 H    145 MOH     0.4215 ****
1178 HC1    18.695872    5.586470   21.886086 H    146 MOH     0.0372 ****
1179 C1     19.288810    5.248032   21.036851 C    146 MOH     0.1166 ****
1180 HC2    19.656005    4.252314   21.285046 H    146 MOH     0.0372 ****
1181 HC3    20.135783    5.917967   20.884823 H    146 MOH     0.0372 ****
1182 O1     18.484562    5.197001   19.866589 O    146 MOH    -0.6497 ****
1183 HO1    18.891593    4.546661   19.288883 H    146 MOH     0.4215 ****
1184 HC1    14.452347    5.907353   27.548597 H    147 MOH     0.0372 ****
1185 C1     14.633635    4.869178   27.827905 C    147 MOH     0.1166 ****
1186 HC2    13.974301    4.231902   27.238885 H    147 MOH     0.0372 ****
1187 HC3    14.409046    4.714451   28.883615 H    147 MOH     0.0372 ****
1188 O1     15.963850    4.473585   27.586781 O    147 MOH    -0.6497 ****
1189 HO1    16.143406    4.581771   26.649865 H    147 MOH     0.4215 ****
1190 HC1    17.710335   -2.479700   23.854672 H    148 MOH     0.0372 ****
1191 C1     18.637559   -2.656471   24.398437 C    148 MOH     0.1166 ****
1192 HC2    18.571741   -3.581154   24.971900 H    148 MOH     0.0372 ****
1193 HC3    18.860994   -1.819971   25.060996 H    148 MOH     0.0372 ****
1194 O1     19.640994   -2.758534   23.467884 O    148 MOH    -0.6497 ****
1195 HO1    20.451016   -2.417646   23.854672 H    148 MOH     0.4215 ****
1196 HC1    15.613399   -2.335588   18.581776 H    149 MOH     0.0372 ****
1197 C1     15.893413   -3.243941   19.115642 C    149 MOH     0.1166 ****
1198 HC2    16.701704   -3.739554   18.578241 H    149 MOH     0.0372 ****
1199 HC3    15.062606   -3.949802   19.138977 H    149 MOH     0.0372 ****
1200 O1     16.331045   -2.982662   20.435103 O    149 MOH    -0.6497 ****
1201 HO1    15.983480   -3.687298   20.986647 H    149 MOH     0.4215 ****
1202 HC1    26.557073   -0.037150   28.007510 H    150 MOH     0.0372 ****
1203 C1     25.547287   -0.358034   27.751537 C    150 MOH     0.1166 ****
1204 HC2    24.849848    0.072668   28.470665 H    150 MOH     0.0372 ****
1205 HC3    25.465881   -1.444382   27.786185 H    150 MOH     0.0372 ****
1206 O1     25.192217    0.101246   26.479452 O    150 MOH    -0.6497 ****
1207 HO1    25.790929   -0.306186   25.850127 H    150 MOH     0.4215 ****
1208 HC1    20.267996  -13.145595   25.759617 H    151 MOH     0.0372 ****
1209 C1     20.235087  -12.060471   25.660623 C    151 MOH     0.1166 ****
1210 HC2    20.680225  -11.591394   26.538142 H    151 MOH     0.0372 ****
1211 HC3    19.197589  -11.734689   25.585669 H    151 MOH     0.0372 ****
1212 O1     20.920980  -11.683249   24.495311 O    151 MOH    -0.6497 ****
1213 HO1    21.022593  -10.729990   24.535616 H    151 MOH     0.4215 ****
1214 HC1    15.721940   -0.801799   24.049833 H    152 MOH     0.0372 ****
1215 C1     15.091474   -1.115334   24.881391 C    152 MOH     0.1166 ****
1216 HC2    14.115175   -1.428052   24.510867 H    152 MOH     0.0372 ****
1217 HC3    14.921156   -0.288223   25.571527 H    152 MOH     0.0372 ****
1218 O1     15.693650   -2.169431   25.577184 O    152 MOH    -0.6497 ****
1219 HO1    15.042976   -2.523791   26.186710 H    152 MOH     0.4215 ****
1220 HC1     7.722175   -6.137196   27.246663 H    153 MOH     0.0372 ****
1221 C1      8.365921   -5.352951   26.849976 C    153 MOH     0.1166 ****
1222 HC2     8.399984   -4.551560   27.587488 H    153 MOH     0.0372 ****
1223 HC3     7.966972   -4.912860   25.934980 H    153 MOH     0.0372 ****
1224 O1      9.677660   -5.817538   26.619459 O    153 MOH    -0.6497 ****
1225 HO1    10.119911   -5.030435   26.294190 H    153 MOH     0.4215 ****
1226 HC1    14.214479    0.898555   22.089026 H    154 MOH     0.0372 ****
1227 C1     14.081111   -0.124107   21.736180 C    154 MOH     0.1166 ****
1228 HC2    13.082295   -0.201675   21.307673 H    154 MOH     0.0372 ****
1229 HC3    14.154434   -0.840991   22.553595 H    154 MOH     0.0372 ****
1230 O1     15.001407   -0.401308   20.724310 O    154 MOH    -0.6497 ****
1231 HO1    15.117455   -1.349260   20.632386 H    154 MOH     0.4215 ****
1232 HC1    16.401482   -8.376030   21.046751 H    155 MOH     0.0372 ****
1233 C1     15.664783   -8.030244   21.771535 C    155 MOH     0.1166 ****
1234 HC2    15.394005   -8.838167   22.452479 H    155 MOH     0.0372 ****
1235 HC3    14.756033   -7.730589   21.251105 H    155 MOH     0.0372 ****
1236 O1     16.104724   -6.948794   22.565616 O    155 MOH    -0.6497 ****
1237 HO1    17.052155   -7.017380   22.701381 H    155 MOH     0.4215 ****
1238 HC1    17.350068    8.179255   21.398890 H    156 MOH     0.0372 ****
1239 C1     16.502518    7.514626   21.568595 C    156 MOH     0.1166 ****
1240 HC2    15.637070    8.158434   21.724866 H    156 MOH     0.0372 ****
1241 HC3    16.735190    6.912868   22.446822 H    156 MOH     0.0372 ****
1242 O1     16.369150    6.812848   20.353079 O    156 MOH    -0.6497 ****
1243 HO1    17.214968    6.407049   20.148018 H    156 MOH     0.4215 ****
1244 HC1    15.238698  -10.626703   26.808964 H    157 MOH     0.0372 ****
1245 C1     16.273887  -10.322558   26.652693 C    157 MOH     0.1166 ****
1246 HC2    16.862785  -11.225195   26.485109 H    157 MOH     0.0372 ****
1247 HC3    16.646856   -9.765707   27.511121 H    157 MOH     0.0372 ****
1248 O1     16.271578   -9.590977   25.476068 O    157 MOH    -0.6497 ****
1249 HO1    16.908973   -8.881850   25.585669 H    157 MOH     0.4215 ****
1250 HC1     6.716431    2.869169   27.497686 H    158 MOH     0.0372 ****
1251 C1      6.550154    3.939596   27.616480 C    158 MOH     0.1166 ****
1252 HC2     6.903492    4.260479   28.596530 H    158 MOH     0.0372 ****
1253 HC3     5.483211    4.152702   27.544355 H    158 MOH     0.0372 ****
1254 O1      7.237201    4.654031   26.606731 O    158 MOH    -0.6497 ****
1255 HO1     7.146557    4.124124   25.811943 H    158 MOH     0.4215 ****
1256 HC1    13.379630    9.185178   24.648753 H    159 MOH     0.0372 ****
1257 C1     14.250852    8.529940   24.629661 C    159 MOH     0.1166 ****
1258 HC2    14.250275    7.958392   23.701937 H    159 MOH     0.0372 ****
1259 HC3    14.223139    7.820813   25.457683 H    159 MOH     0.0372 ****
1260 O1     15.429224    9.314593   24.703200 O    159 MOH    -0.6497 ****
1261 HO1    15.399779    9.825312   25.515665 H    159 MOH     0.4215 ****
1262 HC1     9.194418    2.420096   27.173831 H    160 MOH     0.0372 ****
1263 C1      9.461731    1.415397   27.502635 C    160 MOH     0.1166 ****
1264 HC2    10.406276    1.125949   27.042309 H    160 MOH     0.0372 ****
1265 HC3     8.699052    0.701779   27.192923 H    160 MOH     0.0372 ****
1266 O1      9.629163    1.423154   28.931698 O    160 MOH    -0.6497 ****
1267 HO1     8.800665    1.610948   29.378590 H    160 MOH     0.4215 ****
1268 HC1    27.128072    3.556659   24.604205 H    161 MOH     0.0372 ****
1269 C1     26.681203    3.970623   23.700522 C    161 MOH     0.1166 ****
1270 HC2    25.653520    4.289465   23.872349 H    161 MOH     0.0372 ****
1271 HC3    26.711803    3.198217   22.931190 H    161 MOH     0.0372 ****
1272 O1     27.491803    5.034926   23.312321 O    161 MOH    -0.6497 ****
1273 HO1    27.673668    5.581163   24.080239 H    161 MOH     0.4215 ****
1274 HC1    20.354022    1.304353   19.198374 H    162 MOH     0.0372 ****
1275 C1     19.429684    1.819563   18.936744 C    162 MOH     0.1166 ****
1276 HC2    18.716656    1.772614   19.760523 H    162 MOH     0.0372 ****
1277 HC3    18.993784    1.373347   18.043668 H    162 MOH     0.0372 ****
1278 O1     19.667552    3.168823   18.657437 O    162 MOH    -0.6497 ****
1279 HO1    20.172156    3.199034   17.841436 H    162 MOH     0.4215 ****
1280 HC1    10.613545   -8.915326   19.737896 H    163 MOH     0.0372 ****
1281 C1     11.127387   -8.606282   20.647942 C    163 MOH     0.1166 ****
1282 HC2    12.210496   -8.632410   20.531977 H    163 MOH     0.0372 ****
1283 HC3    10.824278   -9.245599   21.478086 H    163 MOH     0.0372 ****
1284 O1     10.688023   -7.348877   20.930785 O    163 MOH    -0.6497 ****
1285 HO1    10.356047   -6.986761   20.105592 H    163 MOH     0.4215 ****
1286 HC1    12.073664    9.911452   26.175396 H    164 MOH     0.0372 ****
1287 C1     12.640045   10.216414   27.055744 C    164 MOH     0.1166 ****
1288 HC2    13.025715    9.322758   27.547183 H    164 MOH     0.0372 ****
1289 HC3    11.985907   10.740196   27.752244 H    164 MOH     0.0372 ****
1290 O1     13.734701   11.030869   26.650572 O    164 MOH    -0.6497 ****
1291 HO1    13.383672   11.906153   26.473795 H    164 MOH     0.4215 ****
1292 HC1     3.990183    0.506636   25.572234 H    165 MOH     0.0372 ****
1293 C1      4.549058    1.139013   26.261663 C    165 MOH     0.1166 ****
1294 HC2     4.594091    2.139629   25.831035 H    165 MOH     0.0372 ****
1295 HC3     5.562308    0.744645   26.342273 H    165 MOH     0.0372 ****
1296 O1      3.883950    1.151260   27.550012 O    165 MOH    -0.6497 ****
1297 HO1     4.351027    0.533172   28.115697 H    165 MOH     0.4215 ****
1298 HC1    12.465108   -5.706494   23.471420 H    166 MOH     0.0372 ****
1299 C1     11.582916   -5.123108   23.732342 C    166 MOH     0.1166 ****
1300 HC2    11.887180   -4.124532   24.043469 H    166 MOH     0.0372 ****
1301 HC3    11.047713   -5.613006   24.545515 H    166 MOH     0.0372 ****
1302 O1     10.761924   -5.067994   22.564909 O    166 MOH    -0.6497 ****
1303 HO1    10.671280   -5.956751   22.212063 H    166 MOH     0.4215 ****
1304 HC1    14.195426   -3.843657   28.537840 H    167 MOH     0.0372 ****
1305 C1     13.883657   -2.800175   28.502485 C    167 MOH     0.1166 ****
1306 HC2    14.689638   -2.142895   28.830582 H    167 MOH     0.0372 ****
1307 HC3    13.040726   -2.676884   29.181307 H    167 MOH     0.0372 ****
1308 O1     13.430437   -2.453980   27.208479 O    167 MOH    -0.6497 ****
1309 HO1    13.219127   -1.518275   27.238178 H    167 MOH     0.4215 ****
1310 HC1     9.920725   -4.672810   29.354548 H    168 MOH     0.0372 ****
1311 C1     10.692065   -4.965932   30.067312 C    168 MOH     0.1166 ****
1312 HC2    11.589844   -5.222312   29.504455 H    168 MOH     0.0372 ****
1313 HC3    10.361820   -5.854280   30.606127 H    168 MOH     0.0372 ****
1314 O1     10.952450   -3.888565   30.975944 O    168 MOH    -0.6497 ****
1315 HO1    10.286188   -3.913468   31.666787 H    168 MOH     0.4215 ****
1316 HC1     9.791398   -4.062070   35.237677 H    169 MOH     0.0372 ****
1317 C1     10.274641   -4.212714   34.272476 C    169 MOH     0.1166 ****
1318 HC2    10.730170   -5.202308   34.252677 H    169 MOH     0.0372 ****
1319 HC3    11.035011   -3.443574   34.133883 H    169 MOH     0.0372 ****
1320 O1      9.243493   -4.163316   33.286062 O    169 MOH    -0.6497 ****
1321 HO1     8.730806   -3.362333   33.416170 H    169 MOH     0.4215 ****
1322 HC1     5.491294   -2.634426   28.904121 H    170 MOH     0.0372 ****
1323 C1      6.079036   -1.718725   28.965639 C    170 MOH     0.1166 ****
1324 HC2     6.544958   -1.508069   28.002560 H    170 MOH     0.0372 ****
1325 HC3     6.867697   -1.867327   29.702445 H    170 MOH     0.0372 ****
1326 O1      5.297304   -0.594001   29.341113 O    170 MOH    -0.6497 ****
1327 HO1     4.897200   -0.758117   30.198127 H    170 MOH     0.4215 ****
1328 HC1    19.226457   -0.026944   26.453996 H    171 MOH     0.0372 ****
1329 C1     20.008189    0.646257   26.102564 C    171 MOH     0.1166 ****
1330 HC2    20.567641    0.211473   25.274542 H    171 MOH     0.0372 ****
1331 HC3    20.693504    0.851198   26.924222 H    171 MOH     0.0372 ****
1332 O1     19.434303    1.845691   25.657087 O    171 MOH    -0.6497 ****
1333 HO1    19.629447    2.489090   26.342980 H    171 MOH     0.4215 ****
1334 HC1    30.355345    7.307481   21.910128 H    172 MOH     0.0372 ****
1335 C1     30.168283    6.321562   22.335099 C    172 MOH     0.1166 ****
1336 HC2    29.776263    6.416275   23.347676 H    172 MOH     0.0372 ****
1337 HC3    31.125530    5.805128   22.403689 H    172 MOH     0.0372 ****
1338 O1     29.327084    5.517721   21.485864 O    172 MOH    -0.6497 ****
1339 HO1    28.611170    5.171526   22.023265 H    172 MOH     0.4215 ****
1340 HC1    19.415712    9.045394   19.045638 H    173 MOH     0.0372 ****
1341 C1     19.828517   10.052951   19.008869 C    173 MOH     0.1166 ****
1342 HC2    19.743070   10.523661   19.988212 H    173 MOH     0.0372 ****
1343 HC3    19.251745   10.640829   18.294691 H    173 MOH     0.0372 ****
1344 O1     21.167970    9.997429   18.577534 O    173 MOH    -0.6497 ****
1345 HO1    21.201456    9.336883   17.881741 H    173 MOH     0.4215 ****
1346 HC1    20.070427   13.160537   21.268782 H    174 MOH     0.0372 ****
1347 C1     20.858510   13.194830   20.516421 C    174 MOH     0.1166 ****
1348 HC2    20.438199   13.586340   19.589404 H    174 MOH     0.0372 ****
1349 HC3    21.256305   12.197071   20.329744 H    174 MOH     0.0372 ****
1350 O1     21.864832   14.095017   20.866438 O    174 MOH    -0.6497 ****
1351 HO1    22.692175   13.630023   20.722896 H    174 MOH     0.4215 ****
1352 HC1    23.274144   12.540000   18.550664 H    175 MOH     0.0372 ****
1353 C1     23.704270   11.970085   19.375150 C    175 MOH     0.1166 ****
1354 HC2    24.479651   11.326277   18.960079 H    175 MOH     0.0372 ****
1355 HC3    22.958911   11.321378   19.835477 H    175 MOH     0.0372 ****
1356 O1     24.273537   12.864557   20.314895 O    175 MOH    -0.6497 ****
1357 HO1    24.688075   12.325261   20.991596 H    175 MOH     0.4215 ****
1358 HC1    27.328297   15.368344   16.085689 H    176 MOH     0.0372 ****
1359 C1     28.252058   15.556546   15.537682 C    176 MOH     0.1166 ****
1360 HC2    28.842687   14.641662   15.575158 H    176 MOH     0.0372 ****
1361 HC3    28.774560   16.379983   16.024878 H    176 MOH     0.0372 ****
1362 O1     27.978971   15.908864   14.183572 O    176 MOH    -0.6497 ****
1363 HO1    28.760704   16.330993   13.820119 H    176 MOH     0.4215 ****
1364 HC1    22.211819    7.487110   19.737896 H    177 MOH     0.0372 ****
1365 C1     22.725661    7.796154   20.647942 C    177 MOH     0.1166 ****
1366 HC2    23.808770    7.770027   20.531977 H    177 MOH     0.0372 ****
1367 HC3    22.422552    7.156838   21.478086 H    177 MOH     0.0372 ****
1368 O1     22.286298    9.053559   20.930785 O    177 MOH    -0.6497 ****
1369 HO1    21.954321    9.415675   20.105592 H    177 MOH     0.4215 ****
1370 HC1     2.392770  -29.950727   16.981028 H    178 MOH     0.0372 ****
1371 C1      1.938396  -29.652706   16.036333 C    178 MOH     0.1166 ****
1372 HC2     0.857596  -29.787428   16.084417 H    178 MOH     0.0372 ****
1373 HC3     2.361016  -30.277326   15.248617 H    178 MOH     0.0372 ****
1374 O1      2.220143  -28.295281   15.776825 O    178 MOH    -0.6497 ****
1375 HO1     1.950520  -28.100954   14.875971 H    178 MOH     0.4215 ****
1376 HC1     3.433733  -27.037059   20.104319 H    179 MOH     0.0372 ****
1377 C1      3.091941  -27.706587   19.315188 C    179 MOH     0.1166 ****
1378 HC2     2.593688  -28.582687   19.730966 H    179 MOH     0.0372 ****
1379 HC3     3.964318  -28.024612   18.744552 H    179 MOH     0.0372 ****
1380 O1      2.310787  -26.976639   18.393120 O    179 MOH    -0.6497 ****
1381 HO1     2.337922  -27.463679   17.566513 H    179 MOH     0.4215 ****
1382 HC1     7.457864  -30.905212    8.191691 H    180 MOH     0.0372 ****
1383 C1      6.877050  -30.523908    9.031734 C    180 MOH     0.1166 ****
1384 HC2     7.174385  -29.516760    9.323769 H    180 MOH     0.0372 ****
1385 HC3     7.084896  -31.179147    9.878141 H    180 MOH     0.0372 ****
1386 O1      5.497760  -30.567591    8.746770 O    180 MOH    -0.6497 ****
1387 HO1     5.092460  -31.242425    9.296192 H    180 MOH     0.4215 ****
1388 HC1    -1.424670  -29.414289   14.673032 H    181 MOH     0.0372 ****
1389 C1     -2.332264  -29.477976   15.272658 C    181 MOH     0.1166 ****
1390 HC2    -2.943101  -30.324683   14.960117 H    181 MOH     0.0372 ****
1391 HC3    -2.881324  -28.545945   15.140429 H    181 MOH     0.0372 ****
1392 O1     -1.960451  -29.661279   16.597069 O    181 MOH    -0.6497 ****
1393 HO1    -1.433330  -30.463896   16.595655 H    181 MOH     0.4215 ****
1394 HC1     3.242053  -26.966432   13.036787 H    182 MOH     0.0372 ****
1395 C1      2.334458  -26.586762   12.567268 C    182 MOH     0.1166 ****
1396 HC2     2.464939  -26.606766   11.484687 H    182 MOH     0.0372 ****
1397 HC3     2.191275  -25.555935   12.889001 H    182 MOH     0.0372 ****
1398 O1      1.194191  -27.379988   12.941327 O    182 MOH    -0.6497 ****
1399 HO1     0.421119  -26.874985   12.678990 H    182 MOH     0.4215 ****
1400 HC1     0.477699  -32.508403   15.045677 H    183 MOH     0.0372 ****
1401 C1      0.107041  -32.905220   15.990372 C    183 MOH     0.1166 ****
1402 HC2     0.961519  -33.028103   16.655759 H    183 MOH     0.0372 ****
1403 HC3    -0.364655  -33.880934   15.874406 H    183 MOH     0.0372 ****
1404 O1     -0.748015  -31.969924   16.552521 O    183 MOH    -0.6497 ****
1405 HO1    -0.563263  -31.968291   17.494388 H    183 MOH     0.4215 ****
1406 HC1     0.475390  -31.094639   11.970469 H    184 MOH     0.0372 ****
1407 C1      1.041771  -30.789678   12.850817 C    184 MOH     0.1166 ****
1408 HC2     1.427441  -31.683333   13.342257 H    184 MOH     0.0372 ****
1409 HC3     0.387633  -30.265895   13.547318 H    184 MOH     0.0372 ****
1410 O1      2.136427  -29.975222   12.445645 O    184 MOH    -0.6497 ****
1411 HO1     1.785398  -29.099938   12.268869 H    184 MOH     0.4215 ****
1412 HC1    12.528039  -18.292136   12.520599 H    185 MOH     0.0372 ****
1413 C1     11.491695  -18.153332   12.827483 C    185 MOH     0.1166 ****
1414 HC2    10.928201  -17.789174   11.969055 H    185 MOH     0.0372 ****
1415 HC3    11.421836  -17.403380   13.615907 H    185 MOH     0.0372 ****
1416 O1     10.966306  -19.396039   13.244676 O    185 MOH    -0.6497 ****
1417 HO1    10.203627  -19.243763   13.806826 H    185 MOH     0.4215 ****
1418 HC1     7.026468  -28.833107   16.611918 H    186 MOH     0.0372 ****
1419 C1      6.225683  -29.227067   17.237708 C    186 MOH     0.1166 ****
1420 HC2     5.659880  -29.957423   16.658587 H    186 MOH     0.0372 ****
1421 HC3     5.553070  -28.450170   17.599039 H    186 MOH     0.0372 ****
1422 O1      6.722782  -29.968037   18.282105 O    186 MOH    -0.6497 ****
1423 HO1     7.267223  -29.371995   18.801121 H    186 MOH     0.4215 ****
1424 HC1    25.394290  -22.844921   15.337712 H    187 MOH     0.0372 ****
1425 C1     25.827880  -22.651820   16.318469 C    187 MOH     0.1166 ****
1426 HC2    26.113668  -21.600988   16.369381 H    187 MOH     0.0372 ****
1427 HC3    26.715844  -23.271132   16.445041 H    187 MOH     0.0372 ****
1428 O1     24.873520  -22.966579   17.326096 O    187 MOH    -0.6497 ****
1429 HO1    25.074437  -23.858193   17.618839 H    187 MOH     0.4215 ****
1430 HC1    13.577662  -19.743459   17.189625 H    188 MOH     0.0372 ****
1431 C1     14.181570  -19.191915   17.910167 C    188 MOH     0.1166 ****
1432 HC2    14.993324  -19.827150   18.263720 H    188 MOH     0.0372 ****
1433 HC3    13.533206  -18.906142   18.738896 H    188 MOH     0.0372 ****
1434 O1     14.686174  -18.068008   17.254679 O    188 MOH    -0.6497 ****
1435 HO1    15.499083  -17.806321   17.693792 H    188 MOH     0.4215 ****
1436 HC1    20.978137  -18.259885    3.608932 H    189 MOH     0.0372 ****
1437 C1     21.515651  -17.917364    2.724341 C    189 MOH     0.1166 ****
1438 HC2    21.187716  -18.491361    1.857428 H    189 MOH     0.0372 ****
1439 HC3    22.575088  -18.101892    2.902532 H    189 MOH     0.0372 ****
1440 O1     21.255266  -16.536669    2.455641 O    189 MOH    -0.6497 ****
1441 HO1    21.514496  -16.331728    1.554787 H    189 MOH     0.4215 ****
1442 HC1    11.639497  -25.064975   21.574394 H    190 MOH     0.0372 ****
1443 C1     10.619319  -25.357689   21.822588 C    190 MOH     0.1166 ****
1444 HC2    10.458238  -25.300126   22.898098 H    190 MOH     0.0372 ****
1445 HC3    10.410895  -26.379943   21.505804 H    190 MOH     0.0372 ****
1446 O1      9.733086  -24.465258   21.221548 O    190 MOH    -0.6497 ****
1447 HO1    10.184574  -24.088854   20.462115 H    190 MOH     0.4215 ****
1448 HC1    24.346976  -20.092103   12.251191 H    191 MOH     0.0372 ****
1449 C1     24.395474  -21.179676   12.200279 C    191 MOH     0.1166 ****
1450 HC2    24.017309  -21.534444   11.242150 H    191 MOH     0.0372 ****
1451 HC3    23.788678  -21.626300   12.987996 H    191 MOH     0.0372 ****
1452 O1     25.732040  -21.614052   12.273818 O    191 MOH    -0.6497 ****
1453 HO1    25.699708  -22.573436   12.295032 H    191 MOH     0.4215 ****
1454 HC1    15.436730  -21.116806    6.677775 H    192 MOH     0.0372 ****
1455 C1     15.482340  -21.571595    5.687826 C    192 MOH     0.1166 ****
1456 HC2    16.399750  -22.150491    5.578931 H    192 MOH     0.0372 ****
1457 HC3    15.471948  -20.793882    4.924858 H    192 MOH     0.0372 ****
1458 O1     14.379024  -22.408095    5.470744 O    192 MOH    -0.6497 ****
1459 HO1    14.638254  -23.295627    5.728131 H    192 MOH     0.4215 ****
1460 HC1     6.238385  -22.278272   17.778645 H    193 MOH     0.0372 ****
1461 C1      7.278770  -22.250920   17.452668 C    193 MOH     0.1166 ****
1462 HC2     7.863049  -22.890645   18.115227 H    193 MOH     0.0372 ****
1463 HC3     7.619984  -21.217235   17.506408 H    193 MOH     0.0372 ****
1464 O1      7.345743  -22.733061   16.129672 O    193 MOH    -0.6497 ****
1465 HO1     6.751072  -23.485871   16.085831 H    193 MOH     0.4215 ****
1466 HC1     9.118785  -26.960472   13.618735 H    194 MOH     0.0372 ****
1467 C1     10.033308  -26.654286   13.111033 C    194 MOH     0.1166 ****
1468 HC2    10.628556  -25.999864   13.748136 H    194 MOH     0.0372 ****
1469 HC3     9.757912  -26.108050   12.208765 H    194 MOH     0.0372 ****
1470 O1     10.735366  -27.793707   12.712932 O    194 MOH    -0.6497 ****
1471 HO1    11.670096  -27.594890   12.802734 H    194 MOH     0.4215 ****
1472 HC1     6.064603  -27.298093    8.763033 H    195 MOH     0.0372 ****
1473 C1      6.107327  -27.056410    9.825108 C    195 MOH     0.1166 ****
1474 HC2     7.144248  -27.118464   10.156034 H    195 MOH     0.0372 ****
1475 HC3     5.509769  -27.758189   10.407056 H    195 MOH     0.0372 ****
1476 O1      5.673736  -25.762672   10.094515 O    195 MOH    -0.6497 ****
1477 HO1     4.904129  -25.571203    9.553579 H    195 MOH     0.4215 ****
1478 HC1     3.461330  -23.360539   16.478275 H    196 MOH     0.0372 ****
1479 C1      3.026585  -24.246029   16.941430 C    196 MOH     0.1166 ****
1480 HC2     2.614357  -24.920864   16.191190 H    196 MOH     0.0372 ****
1481 HC3     2.204439  -23.959847   17.598332 H    196 MOH     0.0372 ****
1482 O1      3.931871  -24.948624   17.736925 O    196 MOH    -0.6497 ****
1483 HO1     3.405327  -25.666325   18.097550 H    196 MOH     0.4215 ****
1484 HC1    17.050423  -17.802238   14.247353 H    197 MOH     0.0372 ****
1485 C1     16.384739  -16.943284   14.332206 C    197 MOH     0.1166 ****
1486 HC2    15.342621  -17.263350   14.325135 H    197 MOH     0.0372 ****
1487 HC3    16.519839  -16.318664   13.449737 H    197 MOH     0.0372 ****
1488 O1     16.610483  -16.146383   15.535702 O    197 MOH    -0.6497 ****
1489 HO1    16.537736  -16.713440   16.305741 H    197 MOH     0.4215 ****
1490 HC1     9.373974  -25.188675    9.149821 H    198 MOH     0.0372 ****
1491 C1      8.833575  -24.319106    8.776468 C    198 MOH     0.1166 ****
1492 HC2     8.390170  -24.648562    7.836723 H    198 MOH     0.0372 ****
1493 HC3     9.556417  -23.516081    8.630097 H    198 MOH     0.0372 ****
1494 O1      7.842264  -23.980668    9.769953 O    198 MOH    -0.6497 ****
1495 HO1     7.206601  -24.694694    9.852685 H    198 MOH     0.4215 ****
1496 HC1    13.991044  -13.548291   16.981028 H    199 MOH     0.0372 ****
1497 C1     13.536670  -13.250270   16.036333 C    199 MOH     0.1166 ****
1498 HC2    12.455870  -13.384992   16.084417 H    199 MOH     0.0372 ****
1499 HC3    13.959290  -13.874890   15.248617 H    199 MOH     0.0372 ****
1500 O1     13.818417  -11.892844   15.776825 O    199 MOH    -0.6497 ****
1501 HO1    13.548794  -11.698518   14.875971 H    199 MOH     0.4215 ****
1502 HC1    15.032007  -10.634623   20.104319 H    200 MOH     0.0372 ****
1503 C1     14.690216  -11.304150   19.315188 C    200 MOH     0.1166 ****
1504 HC2    14.191962  -12.180251   19.730966 H    200 MOH     0.0372 ****
1505 HC3    15.562592  -11.622176   18.744552 H    200 MOH     0.0372 ****
1506 O1     13.909061  -10.574202   18.393120 O    200 MOH    -0.6497 ****
1507 HO1    13.936196  -11.061242   17.566513 H    200 MOH     0.4215 ****
1508 HC1    20.561868  -19.304184   17.063760 H    201 MOH     0.0372 ****
1509 C1     21.044533  -20.270099   16.916682 C    201 MOH     0.1166 ****
1510 HC2    20.271461  -21.024134   16.768896 H    201 MOH     0.0372 ****
1511 HC3    21.609181  -20.512599   17.816121 H    201 MOH     0.0372 ****
1512 O1     21.952705  -20.242338   15.793796 O    201 MOH    -0.6497 ****
1513 HO1    22.664000  -19.638131   16.022899 H    201 MOH     0.4215 ****
1514 HC1    19.056138  -14.502776    8.191691 H    202 MOH     0.0372 ****
1515 C1     18.475324  -14.121472    9.031734 C    202 MOH     0.1166 ****
1516 HC2    18.772659  -13.114323    9.323769 H    202 MOH     0.0372 ****
1517 HC3    18.683170  -14.776710    9.878141 H    202 MOH     0.0372 ****
1518 O1     17.096034  -14.165154    8.746770 O    202 MOH    -0.6497 ****
1519 HO1    16.690734  -14.839989    9.296192 H    202 MOH     0.4215 ****
1520 HC1     7.633841  -24.859626   19.217607 H    203 MOH     0.0372 ****
1521 C1      7.242397  -25.628766   18.552927 C    203 MOH     0.1166 ****
1522 HC2     7.741805  -25.594882   17.584897 H    203 MOH     0.0372 ****
1523 HC3     6.170835  -25.466283   18.428476 H    203 MOH     0.0372 ****
1524 O1      7.383271  -26.895561   19.137704 O    203 MOH    -0.6497 ****
1525 HO1     6.936979  -26.895969   19.986939 H    203 MOH     0.4215 ****
1526 HC1    17.988618  -23.500568   13.968753 H    204 MOH     0.0372 ****
1527 C1     16.925138  -23.299710   13.837231 C    204 MOH     0.1166 ****
1528 HC2    16.343169  -24.220718   13.864102 H    204 MOH     0.0372 ****
1529 HC3    16.760016  -22.828999   12.867788 H    204 MOH     0.0372 ****
1530 O1     16.474805  -22.409320   14.816574 O    204 MOH    -0.6497 ****
1531 HO1    16.585079  -21.514848   14.486356 H    204 MOH     0.4215 ****
1532 HC1    21.701557  -20.573019   11.172146 H    205 MOH     0.0372 ****
1533 C1     21.297412  -20.227233   10.221087 C    205 MOH     0.1166 ****
1534 HC2    20.364414  -20.750607   10.008955 H    205 MOH     0.0372 ****
1535 HC3    22.018523  -20.372161    9.417107 H    205 MOH     0.0372 ****
1536 O1     21.050884  -18.861234   10.375237 O    205 MOH    -0.6497 ****
1537 HO1    21.875340  -18.405629   10.563327 H    205 MOH     0.4215 ****
1538 HC1    16.899158  -19.901043    8.708586 H    206 MOH     0.0372 ****
1539 C1     16.661867  -20.187633    9.733891 C    206 MOH     0.1166 ****
1540 HC2    17.423969  -20.850220   10.143306 H    206 MOH     0.0372 ****
1541 HC3    15.708662  -20.716314    9.714799 H    206 MOH     0.0372 ****
1542 O1     16.560253  -19.061276   10.571812 O    206 MOH    -0.6497 ****
1543 HO1    17.333903  -18.504833   10.452311 H    206 MOH     0.4215 ****
1544 HC1    23.941099  -18.685687    9.505495 H    207 MOH     0.0372 ****
1545 C1     24.361410  -17.802238    9.986328 C    207 MOH     0.1166 ****
1546 HC2    24.614867  -17.060451    9.229017 H    207 MOH     0.0372 ****
1547 HC3    25.248220  -18.085154   10.552721 H    207 MOH     0.0372 ****
1548 O1     23.356243  -17.305808   10.809400 O    207 MOH    -0.6497 ****
1549 HO1    23.712468  -17.109441   11.678435 H    207 MOH     0.4215 ****
1550 HC1    18.292304  -16.377860   22.081389 H    208 MOH     0.0372 ****
1551 C1     18.249580  -15.503800   21.431558 C    208 MOH     0.1166 ****
1552 HC2    19.050365  -14.803654   21.669853 H    208 MOH     0.0372 ****
1553 HC3    17.310231  -14.987774   21.626720 H    208 MOH     0.0372 ****
1554 O1     18.250157  -15.858160   20.039972 O    208 MOH    -0.6497 ****
1555 HO1    18.359276  -15.065750   19.508935 H    208 MOH     0.4215 ****
1556 HC1    12.605981  -20.647321   10.695556 H    209 MOH     0.0372 ****
1557 C1     12.023435  -21.520155   10.991127 C    209 MOH     0.1166 ****
1558 HC2    12.359453  -22.435040   10.503930 H    209 MOH     0.0372 ****
1559 HC3    11.003257  -21.340118   10.653837 H    209 MOH     0.0372 ****
1560 O1     12.016507  -21.667125   12.394026 O    209 MOH    -0.6497 ****
1561 HO1    11.830022  -20.805313   12.775157 H    209 MOH     0.4215 ****
1562 HC1    11.775174  -23.661826   14.966481 H    210 MOH     0.0372 ****
1563 C1     12.806899  -23.945558   14.760713 C    210 MOH     0.1166 ****
1564 HC2    13.077676  -24.771445   15.417615 H    210 MOH     0.0372 ****
1565 HC3    13.455263  -23.094769   14.971431 H    210 MOH     0.0372 ****
1566 O1     12.944886  -24.264809   13.398825 O    210 MOH    -0.6497 ****
1567 HO1    12.648128  -23.471990   12.946277 H    210 MOH     0.4215 ****
1568 HC1    17.269239  -24.389324    9.279928 H    211 MOH     0.0372 ****
1569 C1     17.283673  -23.681830    8.450492 C    211 MOH     0.1166 ****
1570 HC2    16.292940  -23.250720    8.309071 H    211 MOH     0.0372 ****
1571 HC3    17.622578  -24.174994    7.539739 H    211 MOH     0.0372 ****
1572 O1     18.160668  -22.630182    8.757376 O    211 MOH    -0.6497 ****
1573 HO1    18.356967  -22.623242    9.697121 H    211 MOH     0.4215 ****
1574 HC1    11.065611  -19.907166   16.163613 H    212 MOH     0.0372 ****
1575 C1     10.826010  -20.539951   17.017798 C    212 MOH     0.1166 ****
1576 HC2     9.780429  -20.415435   17.298519 H    212 MOH     0.0372 ****
1577 HC3    11.458209  -20.232540   17.851477 H    212 MOH     0.0372 ****
1578 O1     11.127964  -21.890028   16.701721 O    212 MOH    -0.6497 ****
1579 HO1    10.665507  -22.163146   15.906226 H    212 MOH     0.4215 ****
1580 HC1     8.472153  -27.845554    7.063856 H    213 MOH     0.0372 ****
1581 C1      9.260236  -27.811262    6.311494 C    213 MOH     0.1166 ****
1582 HC2     8.839925  -27.419751    5.384477 H    213 MOH     0.0372 ****
1583 HC3     9.658031  -28.809020    6.124818 H    213 MOH     0.0372 ****
1584 O1     10.266558  -26.911074    6.661512 O    213 MOH    -0.6497 ****
1585 HO1    11.093901  -27.376069    6.517969 H    213 MOH     0.4215 ****
1586 HC1    22.023141  -19.750807    6.631106 H    214 MOH     0.0372 ****
1587 C1     22.766769  -20.271732    6.028651 C    214 MOH     0.1166 ****
1588 HC2    23.682446  -19.682222    5.980568 H    214 MOH     0.0372 ****
1589 HC3    22.430751  -20.392982    4.998397 H    214 MOH     0.0372 ****
1590 O1     23.105096  -21.500559    6.612722 O    214 MOH    -0.6497 ****
1591 HO1    22.401306  -21.772045    7.205984 H    214 MOH     0.4215 ****
1592 HC1    21.773726  -24.603246    8.663331 H    215 MOH     0.0372 ****
1593 C1     20.836687  -24.347275    8.170478 C    215 MOH     0.1166 ****
1594 HC2    19.998374  -24.679181    8.783539 H    215 MOH     0.0372 ****
1595 HC3    20.818211  -24.846154    7.201742 H    215 MOH     0.0372 ****
1596 O1     20.806087  -22.963721    7.953396 O    215 MOH    -0.6497 ****
1597 HO1    19.889832  -22.722447    7.801368 H    215 MOH     0.4215 ****
1598 HC1    11.827136  -25.305433   17.905217 H    216 MOH     0.0372 ****
1599 C1     10.817350  -24.906167   17.997141 C    216 MOH     0.1166 ****
1600 HC2    10.204781  -25.647546   18.510500 H    216 MOH     0.0372 ****
1601 HC3    10.416092  -24.714290   17.001534 H    216 MOH     0.0372 ****
1602 O1     10.885477  -23.717348   18.759402 O    216 MOH    -0.6497 ****
1603 HO1    11.219763  -23.024142   18.185231 H    216 MOH     0.4215 ****
1604 HC1     7.570909  -18.069233   16.329076 H    217 MOH     0.0372 ****
1605 C1      8.433471  -17.606279   15.849657 C    217 MOH     0.1166 ****
1606 HC2     9.220399  -17.491561   16.595655 H    217 MOH     0.0372 ****
1607 HC3     8.116505  -16.614236   15.527217 H    217 MOH     0.0372 ****
1608 O1      8.816254  -18.393790   14.690709 O    217 MOH    -0.6497 ****
1609 HO1     8.122279  -18.347658   14.029564 H    217 MOH     0.4215 ****
1610 HC1    14.257203  -22.631815   22.589799 H    218 MOH     0.0372 ****
1611 C1     14.865153  -21.761022   22.341605 C    218 MOH     0.1166 ****
1612 HC2    15.914775  -22.030466   22.227053 H    218 MOH     0.0372 ****
1613 HC3    14.808572  -21.038831   23.156899 H    218 MOH     0.0372 ****
1614 O1     14.470245  -21.198864   21.131745 O    218 MOH    -0.6497 ****
1615 HO1    14.751992  -21.797356   20.435952 H    218 MOH     0.4215 ****
1616 HC1    15.730024  -25.637748    1.880763 H    219 MOH     0.0372 ****
1617 C1     16.653784  -25.449545    1.332755 C    219 MOH     0.1166 ****
1618 HC2    17.244413  -26.364430    1.370232 H    219 MOH     0.0372 ****
1619 HC3    17.176286  -24.626108    1.819952 H    219 MOH     0.0372 ****
1620 O1     16.380697  -25.097227   -0.021354 O    219 MOH    -0.6497 ****
1621 HO1    17.162430  -24.675098   -0.384807 H    219 MOH     0.4215 ****
1622 HC1    19.837871  -16.381942   11.901880 H    220 MOH     0.0372 ****
1623 C1     18.822889  -16.765288   11.797936 C    220 MOH     0.1166 ****
1624 HC2    18.101778  -15.947974   11.819149 H    220 MOH     0.0372 ****
1625 HC3    18.587907  -17.460126   12.604037 H    220 MOH     0.0372 ****
1626 O1     18.695294  -17.477273   10.615653 O    220 MOH    -0.6497 ****
1627 HO1    19.415828  -18.110466   10.583833 H    220 MOH     0.4215 ****
1628 HC1    22.711920  -24.664075   19.161746 H    221 MOH     0.0372 ****
1629 C1     22.089537  -23.769603   19.152553 C    221 MOH     0.1166 ****
1630 HC2    22.533519  -22.982501   19.762079 H    221 MOH     0.0372 ****
1631 HC3    21.117856  -24.047620   19.561968 H    221 MOH     0.0372 ****
1632 O1     21.909981  -23.316856   17.830971 O    221 MOH    -0.6497 ****
1633 HO1    22.767346  -23.041288   17.497923 H    221 MOH     0.4215 ****
1634 HC1    18.695872  -19.017185    7.681160 H    222 MOH     0.0372 ****
1635 C1     19.288811  -19.355623    6.831925 C    222 MOH     0.1166 ****
1636 HC2    19.656005  -20.351341    7.080119 H    222 MOH     0.0372 ****
1637 HC3    20.135783  -18.685688    6.679897 H    222 MOH     0.0372 ****
1638 O1     18.484562  -19.406654    5.661663 O    222 MOH    -0.6497 ****
1639 HO1    18.891594  -20.056994    5.083957 H    222 MOH     0.4215 ****
1640 HC1    14.452347  -18.696302   13.343671 H    223 MOH     0.0372 ****
1641 C1     14.633635  -19.734477   13.622978 C    223 MOH     0.1166 ****
1642 HC2    13.974301  -20.371753   13.033958 H    223 MOH     0.0372 ****
1643 HC3    14.409046  -19.889203   14.678689 H    223 MOH     0.0372 ****
1644 O1     15.963850  -20.130070   13.381855 O    223 MOH    -0.6497 ****
1645 HO1    16.143406  -20.021884   12.444938 H    223 MOH     0.4215 ****
1646 HC1    18.340801  -24.484446   17.002241 H    224 MOH     0.0372 ****
1647 C1     18.794599  -23.605079   17.459032 C    224 MOH     0.1166 ****
1648 HC2    19.631757  -23.288279   16.836778 H    224 MOH     0.0372 ****
1649 HC3    19.098285  -23.854111   18.475852 H    224 MOH     0.0372 ****
1650 O1     17.844280  -22.607321   17.423677 O    224 MOH    -0.6497 ****
1651 HO1    17.516345  -22.551799   16.522823 H    224 MOH     0.4215 ****
1652 HC1    10.173604  -13.011853   14.673032 H    225 MOH     0.0372 ****
1653 C1      9.266010  -13.075539   15.272658 C    225 MOH     0.1166 ****
1654 HC2     8.655173  -13.922246   14.960117 H    225 MOH     0.0372 ****
1655 HC3     8.716950  -12.143509   15.140429 H    225 MOH     0.0372 ****
1656 O1      9.637823  -13.258843   16.597069 O    225 MOH    -0.6497 ****
1657 HO1    10.164944  -14.061459   16.595655 H    225 MOH     0.4215 ****
1658 HC1    15.202903  -26.069674   21.299329 H    226 MOH     0.0372 ****
1659 C1     15.548158  -26.912707   20.701824 C    226 MOH     0.1166 ****
1660 HC2    16.288321  -27.444654   21.300744 H    226 MOH     0.0372 ****
1661 HC3    15.989831  -26.526912   19.783292 H    226 MOH     0.0372 ****
1662 O1     14.495648  -27.830449   20.368070 O    226 MOH    -0.6497 ****
1663 HO1    14.774509  -28.343617   19.606516 H    226 MOH     0.4215 ****
1664 HC1    22.360314  -17.532386   15.076790 H    227 MOH     0.0372 ****
1665 C1     21.867834  -17.095969   14.207755 C    227 MOH     0.1166 ****
1666 HC2    20.925598  -16.608520   14.458071 H    227 MOH     0.0372 ****
1667 HC3    21.615532  -17.930428   13.552975 H    227 MOH     0.0372 ****
1668 O1     22.705569  -16.170878   13.507720 O    227 MOH    -0.6497 ****
1669 HO1    22.164592  -15.471140   13.135782 H    227 MOH     0.4215 ****
1670 HC1    21.235636  -24.368504   14.722529 H    228 MOH     0.0372 ****
1671 C1     21.899011  -25.190307   14.991937 C    228 MOH     0.1166 ****
1672 HC2    22.915148  -24.804105   15.069719 H    228 MOH     0.0372 ****
1673 HC3    21.885155  -25.972919   14.233211 H    228 MOH     0.0372 ****
1674 O1     21.520847  -25.617335   16.278871 O    228 MOH    -0.6497 ****
1675 HO1    21.574540  -24.848195   16.850214 H    228 MOH     0.4215 ****
1676 HC1    25.015548  -18.169253   18.825870 H    229 MOH     0.0372 ****
1677 C1     24.676066  -18.915123   18.106742 C    229 MOH     0.1166 ****
1678 HC2    24.169730  -19.752440   18.588282 H    229 MOH     0.0372 ****
1679 HC3    25.562876  -19.311940   17.611768 H    229 MOH     0.0372 ****
1680 O1     23.834866  -18.294586   17.152148 O    229 MOH    -0.6497 ****
1681 HO1    24.364297  -17.609545   16.736369 H    229 MOH     0.4215 ****
1682 HC1    15.721941  -25.405454    9.844907 H    230 MOH     0.0372 ****
1683 C1     15.091474  -25.718989   10.676464 C    230 MOH     0.1166 ****
1684 HC2    14.115175  -26.031707   10.305940 H    230 MOH     0.0372 ****
1685 HC3    14.921156  -24.891878   11.366600 H    230 MOH     0.0372 ****
1686 O1     15.693650  -26.773086   11.372257 O    230 MOH    -0.6497 ****
1687 HO1    15.042977  -27.127446   11.981783 H    230 MOH     0.4215 ****
1688 HC1    18.384103  -20.673040   12.988703 H    231 MOH     0.0372 ****
1689 C1     19.040550  -20.397473   13.813897 C    231 MOH     0.1166 ****
1690 HC2    18.493799  -20.433398   14.757177 H    231 MOH     0.0372 ****
1691 HC3    19.386960  -19.374811   13.663283 H    231 MOH     0.0372 ****
1692 O1     20.159455  -21.269491   13.878951 O    231 MOH    -0.6497 ****
1693 HO1    20.764518  -20.942892   14.549288 H    231 MOH     0.4215 ****
1694 HC1    22.160551  -15.958181   20.756271 H    232 MOH     0.0372 ****
1695 C1     21.848782  -16.377043   21.713694 C    232 MOH     0.1166 ****
1696 HC2    21.321661  -15.630765   22.306249 H    232 MOH     0.0372 ****
1697 HC3    22.741365  -16.710582   22.241903 H    232 MOH     0.0372 ****
1698 O1     21.034140  -17.491153   21.486713 O    232 MOH    -0.6497 ****
1699 HO1    20.348248  -17.249878   20.860923 H    232 MOH     0.4215 ****
1700 HC1    16.997885  -19.033923   19.548533 H    233 MOH     0.0372 ****
1701 C1     17.579854  -18.791424   18.658993 C    233 MOH     0.1166 ****
1702 HC2    17.543481  -19.613228   17.944108 H    233 MOH     0.0372 ****
1703 HC3    18.606960  -18.648129   18.996283 H    233 MOH     0.0372 ****
1704 O1     17.113932  -17.547083   18.127248 O    233 MOH    -0.6497 ****
1705 HO1    17.529624  -16.869799   18.665357 H    233 MOH     0.4215 ****
1706 HC1    14.492184  -23.600180   17.220030 H    234 MOH     0.0372 ****
1707 C1     14.654997  -23.824309   18.274327 C    234 MOH     0.1166 ****
1708 HC2    15.222532  -24.751032   18.366250 H    234 MOH     0.0372 ****
1709 HC3    13.671192  -23.941884   18.728289 H    234 MOH     0.0372 ****
1710 O1     15.347817  -22.747758   18.866175 O    234 MOH    -0.6497 ****
1711 HO1    16.186130  -22.657127   18.407970 H    234 MOH     0.4215 ****
1712 HC1    14.214479  -23.705100    7.884099 H    235 MOH     0.0372 ****
1713 C1     14.081111  -24.727762    7.531253 C    235 MOH     0.1166 ****
1714 HC2    13.082295  -24.805329    7.102746 H    235 MOH     0.0372 ****
1715 HC3    14.154435  -25.444646    8.348669 H    235 MOH     0.0372 ****
1716 O1     15.001407  -25.004963    6.519383 O    235 MOH    -0.6497 ****
1717 HO1    15.117455  -25.952915    6.427460 H    235 MOH     0.4215 ****
1718 HC1    17.350068  -16.424400    7.193963 H    236 MOH     0.0372 ****
1719 C1     16.502518  -17.089028    7.363669 C    236 MOH     0.1166 ****
1720 HC2    15.637070  -16.445221    7.519939 H    236 MOH     0.0372 ****
1721 HC3    16.735190  -17.690786    8.241895 H    236 MOH     0.0372 ****
1722 O1     16.369150  -17.790807    6.148152 O    236 MOH    -0.6497 ****
1723 HO1    17.214968  -18.196606    5.943091 H    236 MOH     0.4215 ****
1724 HC1    18.767463  -21.042097   21.775212 H    237 MOH     0.0372 ****
1725 C1     18.830972  -21.965146   21.198920 C    237 MOH     0.1166 ****
1726 HC2    19.862697  -22.169270   20.913249 H    237 MOH     0.0372 ****
1727 HC3    18.213784  -21.853286   20.307966 H    237 MOH     0.0372 ****
1728 O1     18.313088  -23.018427   21.964010 O    237 MOH    -0.6497 ****
1729 HO1    18.563081  -23.843088   21.539746 H    237 MOH     0.4215 ****
1730 HC1     6.716431  -21.734486   13.292759 H    238 MOH     0.0372 ****
1731 C1      6.550154  -20.664059   13.411553 C    238 MOH     0.1166 ****
1732 HC2     6.903493  -20.343176   14.391603 H    238 MOH     0.0372 ****
1733 HC3     5.483211  -20.450953   13.339428 H    238 MOH     0.0372 ****
1734 O1      7.237201  -19.949624   12.401805 O    238 MOH    -0.6497 ****
1735 HO1     7.146557  -20.479530   11.607017 H    238 MOH     0.4215 ****
1736 HC1    13.379631  -15.418476   10.443826 H    239 MOH     0.0372 ****
1737 C1     14.250852  -16.073715   10.424734 C    239 MOH     0.1166 ****
1738 HC2    14.250275  -16.645263    9.497010 H    239 MOH     0.0372 ****
1739 HC3    14.223139  -16.782842   11.252756 H    239 MOH     0.0372 ****
1740 O1     15.429224  -15.289062   10.498273 O    239 MOH    -0.6497 ****
1741 HO1    15.399779  -14.778343   11.310739 H    239 MOH     0.4215 ****
1742 HC1     9.194418  -22.183559   12.968904 H    240 MOH     0.0372 ****
1743 C1      9.461732  -23.188258   13.297709 C    240 MOH     0.1166 ****
1744 HC2    10.406277  -23.477706   12.837382 H    240 MOH     0.0372 ****
1745 HC3     8.699052  -23.901876   12.987996 H    240 MOH     0.0372 ****
1746 O1      9.629163  -23.180501   14.726772 O    240 MOH    -0.6497 ****
1747 HO1     8.800665  -22.992707   15.173663 H    240 MOH     0.4215 ****
1748 HC1    27.128072  -21.046996   10.399278 H    241 MOH     0.0372 ****
1749 C1     26.681203  -20.633032    9.495596 C    241 MOH     0.1166 ****
1750 HC2    25.653520  -20.314190    9.667423 H    241 MOH     0.0372 ****
1751 HC3    26.711803  -21.405438    8.726264 H    241 MOH     0.0372 ****
1752 O1     27.491803  -19.568729    9.107394 O    241 MOH    -0.6497 ****
1753 HO1    27.673668  -19.022492    9.875312 H    241 MOH     0.4215 ****
1754 HC1    20.354022  -23.299301    4.993447 H    242 MOH     0.0372 ****
1755 C1     19.429684  -22.784092    4.731817 C    242 MOH     0.1166 ****
1756 HC2    18.716656  -22.831041    5.555597 H    242 MOH     0.0372 ****
1757 HC3    18.993785  -23.230307    3.838742 H    242 MOH     0.0372 ****
1758 O1     19.667552  -21.434832    4.452510 O    242 MOH    -0.6497 ****
1759 HO1    20.172156  -21.404621    3.636509 H    242 MOH     0.4215 ****
1760 HC1    12.075974  -16.105967   15.045677 H    243 MOH     0.0372 ****
1761 C1     11.705315  -16.502784   15.990372 C    243 MOH     0.1166 ****
1762 HC2    12.559793  -16.625667   16.655759 H    243 MOH     0.0372 ****
1763 HC3    11.233620  -17.478497   15.874406 H    243 MOH     0.0372 ****
1764 O1     10.850259  -15.567487   16.552521 O    243 MOH    -0.6497 ****
1765 HO1    11.035011  -15.565854   17.494388 H    243 MOH     0.4215 ****
1766 HC1    11.364101  -20.780818   20.783848 H    244 MOH     0.0372 ****
1767 C1     11.297705  -21.041280   21.840266 C    244 MOH     0.1166 ****
1768 HC2    11.405670  -22.119464   21.964010 H    244 MOH     0.0372 ****
1769 HC3    10.313900  -20.726521   22.188870 H    244 MOH     0.0372 ****
1770 O1     12.281510  -20.322355   22.563636 O    244 MOH    -0.6497 ****
1771 HO1    13.104234  -20.431357   22.080682 H    244 MOH     0.4215 ****
1772 HC1    12.073664  -14.692203   11.970469 H    245 MOH     0.0372 ****
1773 C1     12.640045  -14.387241   12.850817 C    245 MOH     0.1166 ****
1774 HC2    13.025715  -15.280897   13.342257 H    245 MOH     0.0372 ****
1775 HC3    11.985907  -13.863459   13.547318 H    245 MOH     0.0372 ****
1776 O1     13.734701  -13.572786   12.445645 O    245 MOH    -0.6497 ****
1777 HO1    13.383672  -12.697502   12.268869 H    245 MOH     0.4215 ****
1778 HC1     3.990183  -24.097019   11.367307 H    246 MOH     0.0372 ****
1779 C1      4.549058  -23.464642   12.056737 C    246 MOH     0.1166 ****
1780 HC2     4.594091  -22.464025   11.626108 H    246 MOH     0.0372 ****
1781 HC3     5.562308  -23.859010   12.137347 H    246 MOH     0.0372 ****
1782 O1      3.883951  -23.452395   13.345085 O    246 MOH    -0.6497 ****
1783 HO1     4.351027  -24.070482   13.910770 H    246 MOH     0.4215 ****
1784 HC1    14.195426  -28.447312   14.332913 H    247 MOH     0.0372 ****
1785 C1     13.883657  -27.403830   14.297558 C    247 MOH     0.1166 ****
1786 HC2    14.689638  -26.746550   14.625656 H    247 MOH     0.0372 ****
1787 HC3    13.040726  -27.280539   14.976381 H    247 MOH     0.0372 ****
1788 O1     13.430437  -27.057635   13.003553 O    247 MOH    -0.6497 ****
1789 HO1    13.219127  -26.121930   13.033251 H    247 MOH     0.4215 ****
1790 HC1     9.791398  -28.665725   21.032750 H    248 MOH     0.0372 ****
1791 C1     10.274641  -28.816369   20.067549 C    248 MOH     0.1166 ****
1792 HC2    10.730170  -29.805963   20.047750 H    248 MOH     0.0372 ****
1793 HC3    11.035011  -28.047229   19.928956 H    248 MOH     0.0372 ****
1794 O1      9.243493  -28.766971   19.081135 O    248 MOH    -0.6497 ****
1795 HO1     8.730806  -27.965988   19.211243 H    248 MOH     0.4215 ****
1796 HC1     5.491294  -27.238081   14.699195 H    249 MOH     0.0372 ****
1797 C1      6.079036  -26.322380   14.760713 C    249 MOH     0.1166 ****
1798 HC2     6.544958  -26.111724   13.797633 H    249 MOH     0.0372 ****
1799 HC3     6.867697  -26.470982   15.497518 H    249 MOH     0.0372 ****
1800 O1      5.297304  -25.197656   15.136187 O    249 MOH    -0.6497 ****
1801 HO1     4.897200  -25.361772   15.993200 H    249 MOH     0.4215 ****
1802 HC1    19.308440  -16.564838   17.178311 H    250 MOH     0.0372 ****
1803 C1     20.254140  -16.221909   17.598332 C    250 MOH     0.1166 ****
1804 HC2    20.140402  -15.247420   18.074215 H    250 MOH     0.0372 ****
1805 HC3    20.983911  -16.108416   16.796473 H    250 MOH     0.0372 ****
1806 O1     20.695813  -17.144142   18.570604 O    250 MOH    -0.6497 ****
1807 HO1    21.527197  -17.532386   18.288469 H    250 MOH     0.4215 ****
1808 HC1    19.226457  -24.630599   12.249070 H    251 MOH     0.0372 ****
1809 C1     20.008189  -23.957398   11.897638 C    251 MOH     0.1166 ****
1810 HC2    20.567641  -24.392182   11.069616 H    251 MOH     0.0372 ****
1811 HC3    20.693504  -23.752457   12.719296 H    251 MOH     0.0372 ****
1812 O1     19.434303  -22.757964   11.452160 O    251 MOH    -0.6497 ****
1813 HO1    19.629447  -22.114565   12.138054 H    251 MOH     0.4215 ****
1814 HC1    24.126313   -1.889700   12.520599 H    252 MOH     0.0372 ****
1815 C1     23.089969   -1.750895   12.827483 C    252 MOH     0.1166 ****
1816 HC2    22.526475   -1.386738   11.969055 H    252 MOH     0.0372 ****
1817 HC3    23.020110   -1.000943   13.615907 H    252 MOH     0.0372 ****
1818 O1     22.564580   -2.993603   13.244676 O    252 MOH    -0.6497 ****
1819 HO1    21.801901   -2.841326   13.806826 H    252 MOH     0.4215 ****
1820 HC1    18.624742  -12.430670   16.611918 H    253 MOH     0.0372 ****
1821 C1     17.823957  -12.824630   17.237708 C    253 MOH     0.1166 ****
1822 HC2    17.258154  -13.554986   16.658587 H    253 MOH     0.0372 ****
1823 HC3    17.151344  -12.047734   17.599039 H    253 MOH     0.0372 ****
1824 O1     18.321056  -13.565601   18.282105 O    253 MOH    -0.6497 ****
1825 HO1    18.865497  -12.969558   18.801121 H    253 MOH     0.4215 ****
1826 HC1    30.355345  -17.296174    7.705202 H    254 MOH     0.0372 ****
1827 C1     30.168284  -18.282093    8.130173 C    254 MOH     0.1166 ****
1828 HC2    29.776263  -18.187380    9.142750 H    254 MOH     0.0372 ****
1829 HC3    31.125530  -18.798527    8.198762 H    254 MOH     0.0372 ****
1830 O1     29.327084  -19.085934    7.280938 O    254 MOH    -0.6497 ****
1831 HO1    28.611170  -19.432129    7.818339 H    254 MOH     0.4215 ****
1832 HC1    25.175936   -3.341022   17.189625 H    255 MOH     0.0372 ****
1833 C1     25.779844   -2.789479   17.910167 C    255 MOH     0.1166 ****
1834 HC2    26.591599   -3.424713   18.263720 H    255 MOH     0.0372 ****
1835 HC3    25.131480   -2.503705   18.738896 H    255 MOH     0.0372 ****
1836 O1     26.284448   -1.665571   17.254679 O    255 MOH    -0.6497 ****
1837 HO1    27.097357   -1.403884   17.693792 H    255 MOH     0.4215 ****
1838 HC1    23.237771   -8.662539   21.574394 H    256 MOH     0.0372 ****
1839 C1     22.217593   -8.955253   21.822588 C    256 MOH     0.1166 ****
1840 HC2    22.056512   -8.897690   22.898098 H    256 MOH     0.0372 ****
1841 HC3    22.009169   -9.977506   21.505804 H    256 MOH     0.0372 ****
1842 O1     21.331360   -8.062822   21.221548 O    256 MOH    -0.6497 ****
1843 HO1    21.782848   -7.686417   20.462115 H    256 MOH     0.4215 ****
1844 HC1    27.035004   -4.714370    6.677775 H    257 MOH     0.0372 ****
1845 C1     27.080614   -5.169158    5.687826 C    257 MOH     0.1166 ****
1846 HC2    27.998024   -5.748054    5.578931 H    257 MOH     0.0372 ****
1847 HC3    27.070222   -4.391445    4.924858 H    257 MOH     0.0372 ****
1848 O1     25.977298   -6.005659    5.470744 O    257 MOH    -0.6497 ****
1849 HO1    26.236528   -6.893191    5.728131 H    257 MOH     0.4215 ****
1850 HC1    17.836659   -5.875836   17.778645 H    258 MOH     0.0372 ****
1851 C1     18.877044   -5.848483   17.452668 C    258 MOH     0.1166 ****
1852 HC2    19.461323   -6.488208   18.115227 H    258 MOH     0.0372 ****
1853 HC3    19.218258   -4.814799   17.506408 H    258 MOH     0.0372 ****
1854 O1     18.944017   -6.330624   16.129672 O    258 MOH    -0.6497 ****
1855 HO1    18.349346   -7.083434   16.085831 H    258 MOH     0.4215 ****
1856 HC1    20.717060  -10.558036   13.618735 H    259 MOH     0.0372 ****
1857 C1     21.631582  -10.251849   13.111033 C    259 MOH     0.1166 ****
1858 HC2    22.226831   -9.597427   13.748136 H    259 MOH     0.0372 ****
1859 HC3    21.356186   -9.705613   12.208765 H    259 MOH     0.0372 ****
1860 O1     22.333640  -11.391270   12.712932 O    259 MOH    -0.6497 ****
1861 HO1    23.268370  -11.192453   12.802734 H    259 MOH     0.4215 ****
1862 HC1    17.662877  -10.895657    8.763033 H    260 MOH     0.0372 ****
1863 C1     17.705601  -10.653974    9.825108 C    260 MOH     0.1166 ****
1864 HC2    18.742522  -10.716028   10.156034 H    260 MOH     0.0372 ****
1865 HC3    17.108043  -11.355753   10.407056 H    260 MOH     0.0372 ****
1866 O1     17.272011   -9.360235   10.094515 O    260 MOH    -0.6497 ****
1867 HO1    16.502403   -9.168767    9.553579 H    260 MOH     0.4215 ****
1868 HC1    15.059604   -6.958102   16.478275 H    261 MOH     0.0372 ****
1869 C1     14.624860   -7.843593   16.941430 C    261 MOH     0.1166 ****
1870 HC2    14.212631   -8.518427   16.191190 H    261 MOH     0.0372 ****
1871 HC3    13.802713   -7.557411   17.598332 H    261 MOH     0.0372 ****
1872 O1     15.530145   -8.546188   17.736925 O    261 MOH    -0.6497 ****
1873 HO1    15.003601   -9.263888   18.097550 H    261 MOH     0.4215 ****
1874 HC1    28.648698   -1.399802   14.247353 H    262 MOH     0.0372 ****
1875 C1     27.983013   -0.540847   14.332206 C    262 MOH     0.1166 ****
1876 HC2    26.940895   -0.860914   14.325135 H    262 MOH     0.0372 ****
1877 HC3    28.118113    0.083773   13.449737 H    262 MOH     0.0372 ****
1878 O1     28.208757    0.256053   15.535702 O    262 MOH    -0.6497 ****
1879 HO1    28.136011   -0.311003   16.305741 H    262 MOH     0.4215 ****
1880 HC1    20.972248   -8.786238    9.149821 H    263 MOH     0.0372 ****
1881 C1     20.431849   -7.916669    8.776468 C    263 MOH     0.1166 ****
1882 HC2    19.988444   -8.246126    7.836723 H    263 MOH     0.0372 ****
1883 HC3    21.154691   -7.113645    8.630097 H    263 MOH     0.0372 ****
1884 O1     19.440538   -7.578231    9.769953 O    263 MOH    -0.6497 ****
1885 HO1    18.804876   -8.292258    9.852685 H    263 MOH     0.4215 ****
1886 HC1    19.415712  -15.558261    4.840712 H    264 MOH     0.0372 ****
1887 C1     19.828518  -14.550704    4.803942 C    264 MOH     0.1166 ****
1888 HC2    19.743070  -14.079994    5.783285 H    264 MOH     0.0372 ****
1889 HC3    19.251745  -13.962826    4.089764 H    264 MOH     0.0372 ****
1890 O1     21.167970  -14.606226    4.372607 O    264 MOH    -0.6497 ****
1891 HO1    21.201457  -15.266771    3.676814 H    264 MOH     0.4215 ****
1892 HC1    25.589318    2.854146   16.981028 H    265 MOH     0.0372 ****
1893 C1     25.134944    3.152167   16.036333 C    265 MOH     0.1166 ****
1894 HC2    24.054144    3.017445   16.084417 H    265 MOH     0.0372 ****
1895 HC3    25.557564    2.527547   15.248617 H    265 MOH     0.0372 ****
1896 O1     25.416691    4.509592   15.776825 O    265 MOH    -0.6497 ****
1897 HO1    25.147068    4.703919   14.875971 H    265 MOH     0.4215 ****
1898 HC1    26.630281    5.767814   20.104319 H    266 MOH     0.0372 ****
1899 C1     26.288490    5.098286   19.315188 C    266 MOH     0.1166 ****
1900 HC2    25.790236    4.222186   19.730966 H    266 MOH     0.0372 ****
1901 HC3    27.160866    4.780261   18.744552 H    266 MOH     0.0372 ****
1902 O1     25.507335    5.828234   18.393120 O    266 MOH    -0.6497 ****
1903 HO1    25.534470    5.341194   17.566513 H    266 MOH     0.4215 ****
1904 HC1    29.396944  -10.938115   15.773290 H    267 MOH     0.0372 ****
1905 C1     29.256647  -11.092433   14.704144 C    267 MOH     0.1166 ****
1906 HC2    29.060348  -10.137948   14.214827 H    267 MOH     0.0372 ****
1907 HC3    28.422376  -11.771349   14.528075 H    267 MOH     0.0372 ****
1908 O1     30.432133  -11.646834   14.152601 O    267 MOH    -0.6497 ****
1909 HO1    31.078765  -11.747671   14.854758 H    267 MOH     0.4215 ****
1910 HC1    26.853138  -11.144280    8.404530 H    268 MOH     0.0372 ****
1911 C1     26.692058  -12.157144    8.772933 C    268 MOH     0.1166 ****
1912 HC2    25.940925  -12.112237    9.560650 H    268 MOH     0.0372 ****
1913 HC3    27.616973  -12.557636    9.188004 H    268 MOH     0.0372 ****
1914 O1     26.240570  -13.003851    7.716515 O    268 MOH    -0.6497 ****
1915 HO1    26.645292  -13.861989    7.866422 H    268 MOH     0.4215 ****
1916 HC1    30.654412    1.899661    8.191691 H    269 MOH     0.0372 ****
1917 C1     30.073598    2.280965    9.031734 C    269 MOH     0.1166 ****
1918 HC2    30.370933    3.288113    9.323769 H    269 MOH     0.0372 ****
1919 HC3    30.281444    1.625726    9.878141 H    269 MOH     0.0372 ****
1920 O1     28.694308    2.237282    8.746770 O    269 MOH    -0.6497 ****
1921 HO1    28.289008    1.562448    9.296192 H    269 MOH     0.4215 ****
1922 HC1    19.232115   -8.457190   19.217607 H    270 MOH     0.0372 ****
1923 C1     18.840671   -9.226330   18.552927 C    270 MOH     0.1166 ****
1924 HC2    19.340079   -9.192445   17.584897 H    270 MOH     0.0372 ****
1925 HC3    17.769109   -9.063847   18.428476 H    270 MOH     0.0372 ****
1926 O1     18.981545  -10.493124   19.137704 O    270 MOH    -0.6497 ****
1927 HO1    18.535253  -10.493532   19.986939 H    270 MOH     0.4215 ****
1928 HC1    29.586892   -7.098131   13.968753 H    271 MOH     0.0372 ****
1929 C1     28.523413   -6.897273   13.837231 C    271 MOH     0.1166 ****
1930 HC2    27.941443   -7.818281   13.864102 H    271 MOH     0.0372 ****
1931 HC3    28.358290   -6.426563   12.867788 H    271 MOH     0.0372 ****
1932 O1     28.073079   -6.006884   14.816574 O    271 MOH    -0.6497 ****
1933 HO1    28.183353   -5.112412   14.486356 H    271 MOH     0.4215 ****
1934 HC1    29.067276  -15.426396   16.375745 H    272 MOH     0.0372 ****
1935 C1     28.881370  -14.840560   15.475598 C    272 MOH     0.1166 ****
1936 HC2    28.899268  -15.464363   14.581815 H    272 MOH     0.0372 ****
1937 HC3    29.629038  -14.055090   15.366704 H    272 MOH     0.0372 ****
1938 O1     27.638912  -14.252274   15.604998 O    272 MOH    -0.6497 ****
1939 HO1    27.340422  -14.141639   14.699195 H    272 MOH     0.4215 ****
1940 HC1    28.497432   -3.498606    8.708586 H    273 MOH     0.0372 ****
1941 C1     28.260141   -3.785196    9.733891 C    273 MOH     0.1166 ****
1942 HC2    29.022243   -4.447783   10.143306 H    273 MOH     0.0372 ****
1943 HC3    27.306936   -4.313878    9.714799 H    273 MOH     0.0372 ****
1944 O1     28.158527   -2.658839   10.571812 O    273 MOH    -0.6497 ****
1945 HO1    28.932177   -2.102397   10.452311 H    273 MOH     0.4215 ****
1946 HC1    26.188608  -18.480910   15.060526 H    274 MOH     0.0372 ****
1947 C1     25.781576  -17.480294   14.915569 C    274 MOH     0.1166 ****
1948 HC2    24.735995  -17.526017   14.610099 H    274 MOH     0.0372 ****
1949 HC3    26.338142  -17.022647   14.098861 H    274 MOH     0.0372 ****
1950 O1     25.936306  -16.656448   16.072396 O    274 MOH    -0.6497 ****
1951 HO1    26.219208  -15.776265   15.812181 H    274 MOH     0.4215 ****
1952 HC1    25.594515  -14.075503   17.282963 H    275 MOH     0.0372 ****
1953 C1     25.682849  -13.089583   17.739047 C    275 MOH     0.1166 ****
1954 HC2    25.081828  -13.057740   18.646972 H    275 MOH     0.0372 ****
1955 HC3    25.330666  -12.354328   17.015676 H    275 MOH     0.0372 ****
1956 O1     27.022879  -12.885867   18.046638 O    275 MOH    -0.6497 ****
1957 HO1    27.507853  -13.352495   17.362866 H    275 MOH     0.4215 ****
1958 HC1    29.890578    0.024577   22.081389 H    276 MOH     0.0372 ****
1959 C1     29.847854    0.898636   21.431558 C    276 MOH     0.1166 ****
1960 HC2    30.648639    1.598782   21.669853 H    276 MOH     0.0372 ****
1961 HC3    28.908505    1.414662   21.626720 H    276 MOH     0.0372 ****
1962 O1     29.848431    0.544277   20.039972 O    276 MOH    -0.6497 ****
1963 HO1    29.957551    1.336687   19.508935 H    276 MOH     0.4215 ****
1964 HC1    24.204255   -4.244884   10.695556 H    277 MOH     0.0372 ****
1965 C1     23.621709   -5.117719   10.991127 C    277 MOH     0.1166 ****
1966 HC2    23.957727   -6.032603   10.503930 H    277 MOH     0.0372 ****
1967 HC3    22.601531   -4.937681   10.653837 H    277 MOH     0.0372 ****
1968 O1     23.614781   -5.264688   12.394026 O    277 MOH    -0.6497 ****
1969 HO1    23.428296   -4.402876   12.775157 H    277 MOH     0.4215 ****
1970 HC1    23.373448   -7.259389   14.966481 H    278 MOH     0.0372 ****
1971 C1     24.405173   -7.543122   14.760713 C    278 MOH     0.1166 ****
1972 HC2    24.675950   -8.369008   15.417615 H    278 MOH     0.0372 ****
1973 HC3    25.053537   -6.692332   14.971431 H    278 MOH     0.0372 ****
1974 O1     24.543160   -7.862372   13.398825 O    278 MOH    -0.6497 ****
1975 HO1    24.246402   -7.069554   12.946277 H    278 MOH     0.4215 ****
1976 HC1    28.867513   -7.986888    9.279928 H    279 MOH     0.0372 ****
1977 C1     28.881947   -7.279394    8.450492 C    279 MOH     0.1166 ****
1978 HC2    27.891214   -6.848283    8.309071 H    279 MOH     0.0372 ****
1979 HC3    29.220852   -7.772558    7.539739 H    279 MOH     0.0372 ****
1980 O1     29.758942   -6.227746    8.757376 O    279 MOH    -0.6497 ****
1981 HO1    29.955241   -6.220806    9.697121 H    279 MOH     0.4215 ****
1982 HC1    22.663885   -3.504730   16.163613 H    280 MOH     0.0372 ****
1983 C1     22.424284   -4.137515   17.017798 C    280 MOH     0.1166 ****
1984 HC2    21.378703   -4.012999   17.298519 H    280 MOH     0.0372 ****
1985 HC3    23.056483   -3.830104   17.851477 H    280 MOH     0.0372 ****
1986 O1     22.726238   -5.487592   16.701721 O    280 MOH    -0.6497 ****
1987 HO1    22.263781   -5.760710   15.906226 H    280 MOH     0.4215 ****
1988 HC1    20.070427  -11.443118    7.063856 H    281 MOH     0.0372 ****
1989 C1     20.858510  -11.408825    6.311494 C    281 MOH     0.1166 ****
1990 HC2    20.438199  -11.017315    5.384477 H    281 MOH     0.0372 ****
1991 HC3    21.256305  -12.406584    6.124818 H    281 MOH     0.0372 ****
1992 O1     21.864832  -10.508638    6.661512 O    281 MOH    -0.6497 ****
1993 HO1    22.692175  -10.973632    6.517969 H    281 MOH     0.4215 ****
1994 HC1    23.274144  -12.063655    4.345737 H    282 MOH     0.0372 ****
1995 C1     23.704270  -12.633570    5.170224 C    282 MOH     0.1166 ****
1996 HC2    24.479651  -13.277377    4.755152 H    282 MOH     0.0372 ****
1997 HC3    22.958911  -13.282276    5.630550 H    282 MOH     0.0372 ****
1998 O1     24.273537  -11.739098    6.109969 O    282 MOH    -0.6497 ****
1999 HO1    24.688075  -12.278394    6.786670 H    282 MOH     0.4215 ****
2000 HC1    23.425410   -8.902997   17.905217 H    283 MOH     0.0372 ****
2001 C1     22.415624   -8.503730   17.997141 C    283 MOH     0.1166 ****
2002 HC2    21.803055   -9.245109   18.510500 H    283 MOH     0.0372 ****
2003 HC3    22.014366   -8.311853   17.001534 H    283 MOH     0.0372 ****
2004 O1     22.483751   -7.314911   18.759402 O    283 MOH    -0.6497 ****
2005 HO1    22.818037   -6.621705   18.185231 H    283 MOH     0.4215 ****
2006 HC1    30.042421  -12.910770    6.955668 H    284 MOH     0.0372 ****
2007 C1     30.347839  -13.890975    6.588680 C    284 MOH     0.1166 ****
2008 HC2    31.297003  -13.811366    6.059057 H    284 MOH     0.0372 ****
2009 HC3    29.581118  -14.283301    5.921878 H    284 MOH     0.0372 ****
2010 O1     30.501415  -14.811575    7.662775 O    284 MOH    -0.6497 ****
2011 HO1    31.350697  -15.245542    7.554588 H    284 MOH     0.4215 ****
2012 HC1    19.169183   -1.666796   16.329076 H    285 MOH     0.0372 ****
2013 C1     20.031745   -1.203842   15.849657 C    285 MOH     0.1166 ****
2014 HC2    20.818673   -1.089125   16.595655 H    285 MOH     0.0372 ****
2015 HC3    19.714779   -0.211799   15.527217 H    285 MOH     0.0372 ****
2016 O1     20.414528   -1.991353   14.690709 O    285 MOH    -0.6497 ****
2017 HO1    19.720553   -1.945221   14.029564 H    285 MOH     0.4215 ****
2018 HC1    25.855477   -6.229379   22.589799 H    286 MOH     0.0372 ****
2019 C1     26.463427   -5.358585   22.341605 C    286 MOH     0.1166 ****
2020 HC2    27.513050   -5.628029   22.227053 H    286 MOH     0.0372 ****
2021 HC3    26.406846   -4.636394   23.156899 H    286 MOH     0.0372 ****
2022 O1     26.068519   -4.796427   21.131745 O    286 MOH    -0.6497 ****
2023 HO1    26.350266   -5.394919   20.435952 H    286 MOH     0.4215 ****
2024 HC1    27.328298   -9.235311    1.880763 H    287 MOH     0.0372 ****
2025 C1     28.252058   -9.047109    1.332755 C    287 MOH     0.1166 ****
2026 HC2    28.842687   -9.961993    1.370232 H    287 MOH     0.0372 ****
2027 HC3    28.774560   -8.223672    1.819952 H    287 MOH     0.0372 ****
2028 O1     27.978971   -8.694790   -0.021354 O    287 MOH    -0.6497 ****
2029 HO1    28.760704   -8.272662   -0.384807 H    287 MOH     0.4215 ****
2030 HC1    31.436145    0.020494   11.901880 H    288 MOH     0.0372 ****
2031 C1     30.421163   -0.362851   11.797936 C    288 MOH     0.1166 ****
2032 HC2    29.700052    0.454462   11.819149 H    288 MOH     0.0372 ****
2033 HC3    30.186181   -1.057690   12.604037 H    288 MOH     0.0372 ****
2034 O1     30.293569   -1.074836   10.615653 O    288 MOH    -0.6497 ****
2035 HO1    31.014102   -1.708029   10.583833 H    288 MOH     0.4215 ****
2036 HC1    24.914973  -13.973441   12.791421 H    289 MOH     0.0372 ****
2037 C1     25.771761  -14.231454   12.167752 C    289 MOH     0.1166 ****
2038 HC2    25.957668  -13.438227   11.444382 H    289 MOH     0.0372 ****
2039 HC3    25.525810  -15.135315   11.610552 H    289 MOH     0.0372 ****
2040 O1     26.935122  -14.422106   12.968904 O    289 MOH    -0.6497 ****
2041 HO1    27.631406  -14.769933   12.407462 H    289 MOH     0.4215 ****
2042 HC1    30.969646  -14.313512   11.974712 H    290 MOH     0.0372 ****
2043 C1     30.471392  -15.089183   11.394885 C    290 MOH     0.1166 ****
2044 HC2    31.198276  -15.834645   11.072444 H    290 MOH     0.0372 ****
2045 HC3    30.008935  -14.615207   10.528679 H    290 MOH     0.0372 ****
2046 O1     29.496248  -15.719927   12.191794 O    290 MOH    -0.6497 ****
2047 HO1    29.967943  -16.088983   12.941327 H    290 MOH     0.4215 ****
2048 HC1    30.294146   -2.614749    7.681160 H    291 MOH     0.0372 ****
2049 C1     30.887085   -2.953186    6.831925 C    291 MOH     0.1166 ****
2050 HC2    31.254279   -3.948904    7.080119 H    291 MOH     0.0372 ****
2051 HC3    31.734057   -2.283251    6.679897 H    291 MOH     0.0372 ****
2052 O1     30.082836   -3.004217    5.661663 O    291 MOH    -0.6497 ****
2053 HO1    30.489868   -3.654557    5.083957 H    291 MOH     0.4215 ****
2054 HC1    26.050621   -2.293865   13.343671 H    292 MOH     0.0372 ****
2055 C1     26.231909   -3.332041   13.622978 C    292 MOH     0.1166 ****
2056 HC2    25.572575   -3.969316   13.033958 H    292 MOH     0.0372 ****
2057 HC3    26.007320   -3.486767   14.678689 H    292 MOH     0.0372 ****
2058 O1     27.562124   -3.727633   13.381855 O    292 MOH    -0.6497 ****
2059 HO1    27.741680   -3.619448   12.444938 H    292 MOH     0.4215 ****
2060 HC1    29.939075   -8.082010   17.002241 H    293 MOH     0.0372 ****
2061 C1     30.392873   -7.202643   17.459032 C    293 MOH     0.1166 ****
2062 HC2    31.230031   -6.885842   16.836778 H    293 MOH     0.0372 ****
2063 HC3    30.696559   -7.451674   18.475852 H    293 MOH     0.0372 ****
2064 O1     29.442554   -6.204884   17.423677 O    293 MOH    -0.6497 ****
2065 HO1    29.114619   -6.149362   16.522823 H    293 MOH     0.4215 ****
2066 HC1    21.771879    3.390584   14.673032 H    294 MOH     0.0372 ****
2067 C1     20.864284    3.326897   15.272658 C    294 MOH     0.1166 ****
2068 HC2    20.253447    2.480190   14.960117 H    294 MOH     0.0372 ****
2069 HC3    20.315224    4.258928   15.140429 H    294 MOH     0.0372 ****
2070 O1     21.236097    3.143594   16.597069 O    294 MOH    -0.6497 ****
2071 HO1    21.763218    2.340977   16.595655 H    294 MOH     0.4215 ****
2072 HC1    27.211673  -10.536807    4.376850 H    295 MOH     0.0372 ****
2073 C1     27.491688  -11.445159    4.910716 C    295 MOH     0.1166 ****
2074 HC2    28.299978  -11.940773    4.373314 H    295 MOH     0.0372 ****
2075 HC3    26.660881  -12.151020    4.934050 H    295 MOH     0.0372 ****
2076 O1     27.929319  -11.183880    6.230177 O    295 MOH    -0.6497 ****
2077 HO1    27.581754  -11.888517    6.781720 H    295 MOH     0.4215 ****
2078 HC1    26.801177   -9.667238   21.299329 H    296 MOH     0.0372 ****
2079 C1     27.146432  -10.510270   20.701824 C    296 MOH     0.1166 ****
2080 HC2    27.886595  -11.042218   21.300744 H    296 MOH     0.0372 ****
2081 HC3    27.588105  -10.124476   19.783292 H    296 MOH     0.0372 ****
2082 O1     26.093923  -11.428013   20.368070 O    296 MOH    -0.6497 ****
2083 HO1    26.372783  -11.941181   19.606516 H    296 MOH     0.4215 ****
2084 HC1    27.320215   -9.003018    9.844907 H    297 MOH     0.0372 ****
2085 C1     26.689748   -9.316553   10.676464 C    297 MOH     0.1166 ****
2086 HC2    25.713449   -9.629271   10.305940 H    297 MOH     0.0372 ****
2087 HC3    26.519430   -8.489441   11.366600 H    297 MOH     0.0372 ****
2088 O1     27.291924  -10.370650   11.372257 O    297 MOH    -0.6497 ****
2089 HO1    26.641251  -10.725009   11.981783 H    297 MOH     0.4215 ****
2090 HC1    26.438601    5.838441   13.036787 H    298 MOH     0.0372 ****
2091 C1     25.531006    6.218111   12.567268 C    298 MOH     0.1166 ****
2092 HC2    25.661487    6.198107   11.484687 H    298 MOH     0.0372 ****
2093 HC3    25.387823    7.248938   12.889001 H    298 MOH     0.0372 ****
2094 O1     24.390739    5.424885   12.941327 O    298 MOH    -0.6497 ****
2095 HO1    23.617667    5.929888   12.678990 H    298 MOH     0.4215 ****
2096 HC1    19.320449  -14.338415   13.041736 H    299 MOH     0.0372 ****
2097 C1     19.964195  -13.554170   12.645049 C    299 MOH     0.1166 ****
2098 HC2    19.998258  -12.752778   13.382562 H    299 MOH     0.0372 ****
2099 HC3    19.565246  -13.114078   11.730053 H    299 MOH     0.0372 ****
2100 O1     21.275935  -14.018756   12.414533 O    299 MOH    -0.6497 ****
2101 HO1    21.718185  -13.231654   12.089264 H    299 MOH     0.4215 ****
2102 HC1    28.596159   -2.631487   19.548533 H    300 MOH     0.0372 ****
2103 C1     29.178128   -2.388987   18.658993 C    300 MOH     0.1166 ****
2104 HC2    29.141755   -3.210791   17.944108 H    300 MOH     0.0372 ****
2105 HC3    30.205234   -2.245692   18.996283 H    300 MOH     0.0372 ****
2106 O1     28.712206   -1.144646   18.127248 O    300 MOH    -0.6497 ****
2107 HO1    29.127898   -0.467363   18.665357 H    300 MOH     0.4215 ****
2108 HC1    26.090459   -7.197744   17.220030 H    301 MOH     0.0372 ****
2109 C1     26.253271   -7.421872   18.274327 C    301 MOH     0.1166 ****
2110 HC2    26.820807   -8.348596   18.366250 H    301 MOH     0.0372 ****
2111 HC3    25.269466   -7.539448   18.728289 H    301 MOH     0.0372 ****
2112 O1     26.946092   -6.345321   18.866175 O    301 MOH    -0.6497 ****
2113 HO1    27.784404   -6.254690   18.407970 H    301 MOH     0.4215 ****
2114 HC1    24.025854  -13.263905   21.979566 H    302 MOH     0.0372 ****
2115 C1     23.632678  -12.829121   22.898098 C    302 MOH     0.1166 ****
2116 HC2    23.448504  -11.764409   22.756676 H    302 MOH     0.0372 ****
2117 HC3    24.331850  -12.973232   23.721877 H    302 MOH     0.0372 ****
2118 O1     22.468163  -13.490075   23.226902 O    302 MOH    -0.6497 ****
2119 HO1    22.043810  -13.040593   23.961586 H    302 MOH     0.4215 ****
2120 HC1    25.812753   -7.302664    7.884099 H    303 MOH     0.0372 ****
2121 C1     25.679385   -8.325326    7.531253 C    303 MOH     0.1166 ****
2122 HC2    24.680569   -8.402893    7.102746 H    303 MOH     0.0372 ****
2123 HC3    25.752709   -9.042210    8.348669 H    303 MOH     0.0372 ****
2124 O1     26.599682   -8.602526    6.519383 O    303 MOH    -0.6497 ****
2125 HO1    26.715729   -9.550479    6.427460 H    303 MOH     0.4215 ****
2126 HC1    27.999756  -16.577248    6.841824 H    304 MOH     0.0372 ****
2127 C1     27.263057  -16.231462    7.566609 C    304 MOH     0.1166 ****
2128 HC2    26.992280  -17.039385    8.247552 H    304 MOH     0.0372 ****
2129 HC3    26.354308  -15.931808    7.046178 H    304 MOH     0.0372 ****
2130 O1     27.702998  -15.150012    8.360690 O    304 MOH    -0.6497 ****
2131 HO1    28.650430  -15.218598    8.496454 H    304 MOH     0.4215 ****
2132 HC1    28.948342   -0.021964    7.193963 H    305 MOH     0.0372 ****
2133 C1     28.100792   -0.686592    7.363669 C    305 MOH     0.1166 ****
2134 HC2    27.235344   -0.042784    7.519939 H    305 MOH     0.0372 ****
2135 HC3    28.333464   -1.288350    8.241895 H    305 MOH     0.0372 ****
2136 O1     27.967424   -1.388371    6.148152 O    305 MOH    -0.6497 ****
2137 HO1    28.813242   -1.794170    5.943091 H    305 MOH     0.4215 ****
2138 HC1    26.836972  -18.827921   12.604037 H    306 MOH     0.0372 ****
2139 C1     27.872161  -18.523776   12.447767 C    306 MOH     0.1166 ****
2140 HC2    28.461059  -19.426413   12.280182 H    306 MOH     0.0372 ****
2141 HC3    28.245130  -17.966926   13.306194 H    306 MOH     0.0372 ****
2142 O1     27.869852  -17.792195   11.271141 O    306 MOH    -0.6497 ****
2143 HO1    28.507247  -17.083068   11.380743 H    306 MOH     0.4215 ****
2144 HC1    30.365737   -4.639660   21.775212 H    307 MOH     0.0372 ****
2145 C1     30.429246   -5.562709   21.198920 C    307 MOH     0.1166 ****
2146 HC2    31.460971   -5.766834   20.913249 H    307 MOH     0.0372 ****
2147 HC3    29.812058   -5.450849   20.307966 H    307 MOH     0.0372 ****
2148 O1     29.911363   -6.615990   21.964010 O    307 MOH    -0.6497 ****
2149 HO1    30.161355   -7.440652   21.539746 H    307 MOH     0.4215 ****
2150 HC1    18.314705   -5.332049   13.292759 H    308 MOH     0.0372 ****
2151 C1     18.148428   -4.261622   13.411553 C    308 MOH     0.1166 ****
2152 HC2    18.501767   -3.940739   14.391603 H    308 MOH     0.0372 ****
2153 HC3    17.081485   -4.048517   13.339428 H    308 MOH     0.0372 ****
2154 O1     18.835475   -3.547188   12.401805 O    308 MOH    -0.6497 ****
2155 HO1    18.744831   -4.077094   11.607017 H    308 MOH     0.4215 ****
2156 HC1    24.977905    0.983960   10.443826 H    309 MOH     0.0372 ****
2157 C1     25.849126    0.328722   10.424734 C    309 MOH     0.1166 ****
2158 HC2    25.848549   -0.242826    9.497010 H    309 MOH     0.0372 ****
2159 HC3    25.821413   -0.380406   11.252756 H    309 MOH     0.0372 ****
2160 O1     27.027498    1.113375   10.498273 O    309 MOH    -0.6497 ****
2161 HO1    26.998053    1.624093   11.310739 H    309 MOH     0.4215 ****
2162 HC1    20.792692   -5.781122   12.968904 H    310 MOH     0.0372 ****
2163 C1     21.060006   -6.785821   13.297709 C    310 MOH     0.1166 ****
2164 HC2    22.004551   -7.075269   12.837382 H    310 MOH     0.0372 ****
2165 HC3    20.297326   -7.499439   12.987996 H    310 MOH     0.0372 ****
2166 O1     21.227437   -6.778065   14.726772 O    310 MOH    -0.6497 ****
2167 HO1    20.398940   -6.590270   15.173663 H    310 MOH     0.4215 ****
2168 HC1    23.674248    0.296470   15.045677 H    311 MOH     0.0372 ****
2169 C1     23.303589   -0.100347   15.990372 C    311 MOH     0.1166 ****
2170 HC2    24.158067   -0.223230   16.655759 H    311 MOH     0.0372 ****
2171 HC3    22.831894   -1.076061   15.874406 H    311 MOH     0.0372 ****
2172 O1     22.448533    0.834950   16.552521 O    311 MOH    -0.6497 ****
2173 HO1    22.633285    0.836583   17.494388 H    311 MOH     0.4215 ****
2174 HC1    22.211820  -17.116544    5.532969 H    312 MOH     0.0372 ****
2175 C1     22.725661  -16.807500    6.443016 C    312 MOH     0.1166 ****
2176 HC2    23.808770  -16.833628    6.327050 H    312 MOH     0.0372 ****
2177 HC3    22.422552  -17.446817    7.273159 H    312 MOH     0.0372 ****
2178 O1     22.286298  -15.550096    6.725859 O    312 MOH    -0.6497 ****
2179 HO1    21.954321  -15.187979    5.900665 H    312 MOH     0.4215 ****
2180 HC1    22.962375   -4.378381   20.783848 H    313 MOH     0.0372 ****
2181 C1     22.895979   -4.638844   21.840266 C    313 MOH     0.1166 ****
2182 HC2    23.003944   -5.717027   21.964010 H    313 MOH     0.0372 ****
2183 HC3    21.912175   -4.324084   22.188870 H    313 MOH     0.0372 ****
2184 O1     23.879784   -3.919918   22.563636 O    313 MOH    -0.6497 ****
2185 HO1    24.702508   -4.028921   22.080682 H    313 MOH     0.4215 ****
2186 HC1    23.671938    1.710234   11.970469 H    314 MOH     0.0372 ****
2187 C1     24.238319    2.015195   12.850817 C    314 MOH     0.1166 ****
2188 HC2    24.623989    1.121540   13.342257 H    314 MOH     0.0372 ****
2189 HC3    23.584181    2.538978   13.547318 H    314 MOH     0.0372 ****
2190 O1     25.332975    2.829651   12.445645 O    314 MOH    -0.6497 ****
2191 HO1    24.981946    3.704935   12.268869 H    314 MOH     0.4215 ****
2192 HC1    24.063382  -13.907713    9.266493 H    315 MOH     0.0372 ****
2193 C1     23.181191  -13.324326    9.527416 C    315 MOH     0.1166 ****
2194 HC2    23.485454  -12.325751    9.838543 H    315 MOH     0.0372 ****
2195 HC3    22.645987  -13.814224   10.340588 H    315 MOH     0.0372 ****
2196 O1     22.360198  -13.269212    8.359982 O    315 MOH    -0.6497 ****
2197 HO1    22.269555  -14.157969    8.007136 H    315 MOH     0.4215 ****
2198 HC1    25.793700  -12.044876   14.332913 H    316 MOH     0.0372 ****
2199 C1     25.481931  -11.001393   14.297558 C    316 MOH     0.1166 ****
2200 HC2    26.287912  -10.344113   14.625656 H    316 MOH     0.0372 ****
2201 HC3    24.639000  -10.878102   14.976381 H    316 MOH     0.0372 ****
2202 O1     25.028711  -10.655199   13.003553 O    316 MOH    -0.6497 ****
2203 HO1    24.817401   -9.719494   13.033251 H    316 MOH     0.4215 ****
2204 HC1    21.518999  -12.874028   15.149622 H    317 MOH     0.0372 ****
2205 C1     22.290339  -13.167150   15.862385 C    317 MOH     0.1166 ****
2206 HC2    23.188119  -13.423530   15.299528 H    317 MOH     0.0372 ****
2207 HC3    21.960095  -14.055499   16.401201 H    317 MOH     0.0372 ****
2208 O1     22.550724  -12.089783   16.771018 O    317 MOH    -0.6497 ****
2209 HO1    21.884462  -12.114686   17.461861 H    317 MOH     0.4215 ****
2210 HC1    21.389673  -12.263289   21.032750 H    318 MOH     0.0372 ****
2211 C1     21.872915  -12.413932   20.067549 C    318 MOH     0.1166 ****
2212 HC2    22.328444  -13.403526   20.047750 H    318 MOH     0.0372 ****
2213 HC3    22.633285  -11.644792   19.928956 H    318 MOH     0.0372 ****
2214 O1     20.841767  -12.364534   19.081135 O    318 MOH    -0.6497 ****
2215 HO1    20.329080  -11.563551   19.211243 H    318 MOH     0.4215 ****
2216 HC1    17.089568  -10.835644   14.699195 H    319 MOH     0.0372 ****
2217 C1     17.677310   -9.919943   14.760713 C    319 MOH     0.1166 ****
2218 HC2    18.143232   -9.709287   13.797633 H    319 MOH     0.0372 ****
2219 HC3    18.465971  -10.068546   15.497518 H    319 MOH     0.0372 ****
2220 O1     16.895578   -8.795219   15.136187 O    319 MOH    -0.6497 ****
2221 HO1    16.495474   -8.959335   15.993200 H    319 MOH     0.4215 ****
2222 HC1    30.223016    3.971766   16.611918 H    320 MOH     0.0372 ****
2223 C1     29.422231    3.577806   17.237708 C    320 MOH     0.1166 ****
2224 HC2    28.856428    2.847450   16.658587 H    320 MOH     0.0372 ****
2225 HC3    28.749618    4.354703   17.599039 H    320 MOH     0.0372 ****
2226 O1     29.919330    2.836836   18.282105 O    320 MOH    -0.6497 ****
2227 HO1    30.463771    3.432878   18.801121 H    320 MOH     0.4215 ****
2228 HC1    29.434933   10.526601   17.778645 H    321 MOH     0.0372 ****
2229 C1     30.475318   10.553953   17.452668 C    321 MOH     0.1166 ****
2230 HC2    31.059597    9.914228   18.115227 H    321 MOH     0.0372 ****
2231 HC3    30.816532   11.587638   17.506408 H    321 MOH     0.0372 ****
2232 O1     30.542291   10.071812   16.129672 O    321 MOH    -0.6497 ****
2233 HO1    29.947620    9.319002   16.085831 H    321 MOH     0.4215 ****
2234 HC1    29.261151    5.506780    8.763033 H    322 MOH     0.0372 ****
2235 C1     29.303875    5.748463    9.825108 C    322 MOH     0.1166 ****
2236 HC2    30.340796    5.686409   10.156034 H    322 MOH     0.0372 ****
2237 HC3    28.706317    5.046684   10.407056 H    322 MOH     0.0372 ****
2238 O1     28.870285    7.042201   10.094515 O    322 MOH    -0.6497 ****
2239 HO1    28.100677    7.233670    9.553579 H    322 MOH     0.4215 ****
2240 HC1    26.657878    9.444334   16.478275 H    323 MOH     0.0372 ****
2241 C1     26.223134    8.558844   16.941430 C    323 MOH     0.1166 ****
2242 HC2    25.810906    7.884009   16.191190 H    323 MOH     0.0372 ****
2243 HC3    25.400987    8.845026   17.598332 H    323 MOH     0.0372 ****
2244 O1     27.128419    7.856249   17.736925 O    323 MOH    -0.6497 ****
2245 HO1    26.601875    7.138548   18.097550 H    323 MOH     0.4215 ****
2246 HC1    30.830389    7.945247   19.217607 H    324 MOH     0.0372 ****
2247 C1     30.438945    7.176107   18.552927 C    324 MOH     0.1166 ****
2248 HC2    30.938353    7.209992   17.584897 H    324 MOH     0.0372 ****
2249 HC3    29.367383    7.338590   18.428476 H    324 MOH     0.0372 ****
2250 O1     30.579819    5.909312   19.137704 O    324 MOH    -0.6497 ****
2251 HO1    30.133527    5.908904   19.986939 H    324 MOH     0.4215 ****
2252 HC1    29.912979   11.070387   13.292759 H    325 MOH     0.0372 ****
2253 C1     29.746702   12.140814   13.411553 C    325 MOH     0.1166 ****
2254 HC2    30.100041   12.461698   14.391603 H    325 MOH     0.0372 ****
2255 HC3    28.679759   12.353920   13.339428 H    325 MOH     0.0372 ****
2256 O1     30.433749   12.855249   12.401805 O    325 MOH    -0.6497 ****
2257 HO1    30.343105   12.325343   11.607017 H    325 MOH     0.4215 ****
2258 HC1    27.186731    8.707854   11.367307 H    326 MOH     0.0372 ****
2259 C1     27.745606    9.340231   12.056737 C    326 MOH     0.1166 ****
2260 HC2    27.790640   10.340848   11.626108 H    326 MOH     0.0372 ****
2261 HC3    28.758856    8.945863   12.137347 H    326 MOH     0.0372 ****
2262 O1     27.080499    9.352479   13.345085 O    326 MOH    -0.6497 ****
2263 HO1    27.547575    8.734391   13.910770 H    326 MOH     0.4215 ****
2264 HC1    28.687842    5.566792   14.699195 H    327 MOH     0.0372 ****
2265 C1     29.275584    6.482493   14.760713 C    327 MOH     0.1166 ****
2266 HC2    29.741506    6.693149   13.797633 H    327 MOH     0.0372 ****
2267 HC3    30.064245    6.333891   15.497518 H    327 MOH     0.0372 ****
2268 O1     28.493852    7.607217   15.136187 O    327 MOH    -0.6497 ****
2269 HO1    28.093748    7.443101   15.993200 H    327 MOH     0.4215 ****
2270 HC1    25.589319  -21.749509    2.776102 H    328 MOH     0.0372 ****
2271 C1     25.134944  -21.451488    1.831407 C    328 MOH     0.1166 ****
2272 HC2    24.054144  -21.586210    1.879490 H    328 MOH     0.0372 ****
2273 HC3    25.557564  -22.076108    1.043690 H    328 MOH     0.0372 ****
2274 O1     25.416691  -20.094062    1.571899 O    328 MOH    -0.6497 ****
2275 HO1    25.147068  -19.899736    0.671045 H    328 MOH     0.4215 ****
2276 HC1    26.630281  -18.835841    5.899392 H    329 MOH     0.0372 ****
2277 C1     26.288490  -19.505368    5.110261 C    329 MOH     0.1166 ****
2278 HC2    25.790236  -20.381469    5.526040 H    329 MOH     0.0372 ****
2279 HC3    27.160866  -19.823394    4.539626 H    329 MOH     0.0372 ****
2280 O1     25.507335  -18.775421    4.188194 O    329 MOH    -0.6497 ****
2281 HO1    25.534470  -19.262461    3.361586 H    329 MOH     0.4215 ****
2282 HC1    30.654413  -22.703994   -6.013236 H    330 MOH     0.0372 ****
2283 C1     30.073598  -22.322690   -5.173193 C    330 MOH     0.1166 ****
2284 HC2    30.370934  -21.315541   -4.881158 H    330 MOH     0.0372 ****
2285 HC3    30.281444  -22.977928   -4.326786 H    330 MOH     0.0372 ****
2286 O1     28.694308  -22.366373   -5.458157 O    330 MOH    -0.6497 ****
2287 HO1    28.289009  -23.041207   -4.908735 H    330 MOH     0.4215 ****
2288 HC1    21.771879  -21.213071    0.468105 H    331 MOH     0.0372 ****
2289 C1     20.864284  -21.276758    1.067732 C    331 MOH     0.1166 ****
2290 HC2    20.253447  -22.123465    0.755190 H    331 MOH     0.0372 ****
2291 HC3    20.315224  -20.344727    0.935503 H    331 MOH     0.0372 ****
2292 O1     21.236098  -21.460061    2.392143 O    331 MOH    -0.6497 ****
2293 HO1    21.763218  -22.262677    2.390728 H    331 MOH     0.4215 ****
2294 HC1    26.438601  -18.765214   -1.168140 H    332 MOH     0.0372 ****
2295 C1     25.531006  -18.385543   -1.637659 C    332 MOH     0.1166 ****
2296 HC2    25.661487  -18.405548   -2.720239 H    332 MOH     0.0372 ****
2297 HC3    25.387823  -17.354716   -1.315925 H    332 MOH     0.0372 ****
2298 O1     24.390739  -19.178770   -1.263599 O    332 MOH    -0.6497 ****
2299 HO1    23.617667  -18.673767   -1.525936 H    332 MOH     0.4215 ****
2300 HC1    23.674248  -24.307185    0.840750 H    333 MOH     0.0372 ****
2301 C1     23.303589  -24.704002    1.785445 C    333 MOH     0.1166 ****
2302 HC2    24.158067  -24.826885    2.450832 H    333 MOH     0.0372 ****
2303 HC3    22.831894  -25.679716    1.669479 H    333 MOH     0.0372 ****
2304 O1     22.448533  -23.768705    2.347595 O    333 MOH    -0.6497 ****
2305 HO1    22.633285  -23.767072    3.289461 H    333 MOH     0.4215 ****
2306 HC1    23.671938  -22.893421   -2.234457 H    334 MOH     0.0372 ****
2307 C1     24.238319  -22.588460   -1.354109 C    334 MOH     0.1166 ****
2308 HC2    24.623989  -23.482115   -0.862670 H    334 MOH     0.0372 ****
2309 HC3    23.584181  -22.064677   -0.657609 H    334 MOH     0.0372 ****
2310 O1     25.332975  -21.774004   -1.759281 O    334 MOH    -0.6497 ****
2311 HO1    24.981946  -20.898720   -1.936058 H    334 MOH     0.4215 ****
2312 HC1    30.223016  -20.631889    2.406992 H    335 MOH     0.0372 ****
2313 C1     29.422232  -21.025848    3.032781 C    335 MOH     0.1166 ****
2314 HC2    28.856428  -21.756205    2.453661 H    335 MOH     0.0372 ****
2315 HC3    28.749619  -20.248952    3.394113 H    335 MOH     0.0372 ****
2316 O1     29.919330  -21.766819    4.077178 O    335 MOH    -0.6497 ****
2317 HO1    30.463771  -21.170777    4.596195 H    335 MOH     0.4215 ****
2318 HC1    29.434933  -14.077054    3.573718 H    336 MOH     0.0372 ****
2319 C1     30.475318  -14.049702    3.247742 C    336 MOH     0.1166 ****
2320 HC2    31.059597  -14.689427    3.910301 H    336 MOH     0.0372 ****
2321 HC3    30.816532  -13.016017    3.301482 H    336 MOH     0.0372 ****
2322 O1     30.542291  -14.531843    1.924745 O    336 MOH    -0.6497 ****
2323 HO1    29.947620  -15.284653    1.880904 H    336 MOH     0.4215 ****
2324 HC1    29.261151  -19.096875   -5.441893 H    337 MOH     0.0372 ****
2325 C1     29.303875  -18.855192   -4.379819 C    337 MOH     0.1166 ****
2326 HC2    30.340796  -18.917246   -4.048893 H    337 MOH     0.0372 ****
2327 HC3    28.706317  -19.556971   -3.797870 H    337 MOH     0.0372 ****
2328 O1     28.870285  -17.561453   -4.110411 O    337 MOH    -0.6497 ****
2329 HO1    28.100677  -17.369985   -4.651348 H    337 MOH     0.4215 ****
2330 HC1    26.657878  -15.159320    2.273349 H    338 MOH     0.0372 ****
2331 C1     26.223134  -16.044811    2.736504 C    338 MOH     0.1166 ****
2332 HC2    25.810906  -16.719645    1.986263 H    338 MOH     0.0372 ****
2333 HC3    25.400987  -15.758629    3.393406 H    338 MOH     0.0372 ****
2334 O1     27.128419  -16.747406    3.531999 O    338 MOH    -0.6497 ****
2335 HO1    26.601875  -17.465107    3.892623 H    338 MOH     0.4215 ****
2336 HC1    30.830389  -16.658408    5.012680 H    339 MOH     0.0372 ****
2337 C1     30.438945  -17.427548    4.348000 C    339 MOH     0.1166 ****
2338 HC2    30.938353  -17.393663    3.379971 H    339 MOH     0.0372 ****
2339 HC3    29.367383  -17.265065    4.223549 H    339 MOH     0.0372 ****
2340 O1     30.579819  -18.694342    4.932777 O    339 MOH    -0.6497 ****
2341 HO1    30.133527  -18.694751    5.782013 H    339 MOH     0.4215 ****
2342 HC1    29.912979  -13.533268   -0.912167 H    340 MOH     0.0372 ****
2343 C1     29.746702  -12.462841   -0.793373 C    340 MOH     0.1166 ****
2344 HC2    30.100041  -12.141957    0.186677 H    340 MOH     0.0372 ****
2345 HC3    28.679759  -12.249735   -0.865498 H    340 MOH     0.0372 ****
2346 O1     30.433749  -11.748406   -1.803122 O    340 MOH    -0.6497 ****
2347 HO1    30.343105  -12.278312   -2.597910 H    340 MOH     0.4215 ****
2348 HC1    27.186731  -15.895800   -2.837619 H    341 MOH     0.0372 ****
2349 C1     27.745606  -15.263424   -2.148190 C    341 MOH     0.1166 ****
2350 HC2    27.790640  -14.262807   -2.578818 H    341 MOH     0.0372 ****
2351 HC3    28.758856  -15.657792   -2.067580 H    341 MOH     0.0372 ****
2352 O1     27.080499  -15.251176   -0.859841 O    341 MOH    -0.6497 ****
2353 HO1    27.547575  -15.869264   -0.294156 H    341 MOH     0.4215 ****
2354 HC1    28.687842  -19.036863    0.494268 H    342 MOH     0.0372 ****
2355 C1     29.275585  -18.121162    0.555786 C    342 MOH     0.1166 ****
2356 HC2    29.741506  -17.910506   -0.407293 H    342 MOH     0.0372 ****
2357 HC3    30.064245  -18.269764    1.292592 H    342 MOH     0.0372 ****
2358 O1     28.493852  -16.996438    0.931260 O    342 MOH    -0.6497 ****
2359 HO1    28.093749  -17.160554    1.788273 H    342 MOH     0.4215 ****
2360 HC1   -25.414959  -10.058666   17.813858 H    343 MOH     0.0372 ****
2361 C1    -24.877446   -9.716146   16.929268 C    343 MOH     0.1166 ****
2362 HC2   -25.205381  -10.290143   16.062355 H    343 MOH     0.0372 ****
2363 HC3   -23.818008   -9.900674   17.107458 H    343 MOH     0.0372 ****
2364 O1    -25.137831   -8.335450   16.660567 O    343 MOH    -0.6497 ****
2365 HO1   -24.878601   -8.130510   15.759713 H    343 MOH     0.4215 ****
2366 HC1   -24.369955  -11.549589   20.836033 H    344 MOH     0.0372 ****
2367 C1    -23.626328  -12.070514   20.233578 C    344 MOH     0.1166 ****
2368 HC2   -22.710650  -11.481003   20.185494 H    344 MOH     0.0372 ****
2369 HC3   -23.962346  -12.191764   19.203323 H    344 MOH     0.0372 ****
2370 O1    -23.288001  -13.299341   20.817648 O    344 MOH    -0.6497 ****
2371 HO1   -23.991791  -13.570826   21.410910 H    344 MOH     0.4215 ****
2372 HC1   -30.663073  -17.436529   16.085689 H    345 MOH     0.0372 ****
2373 C1    -29.739313  -17.248327   15.537681 C    345 MOH     0.1166 ****
2374 HC2   -29.148683  -18.163211   15.575158 H    345 MOH     0.0372 ****
2375 HC3   -29.216811  -16.424890   16.024878 H    345 MOH     0.0372 ****
2376 O1    -30.012399  -16.896009   14.183572 O    345 MOH    -0.6497 ****
2377 HO1   -29.230667  -16.473880   13.820119 H    345 MOH     0.4215 ****
2378 HC1   -22.266784    6.311519   26.725525 H    346 MOH     0.0372 ****
2379 C1    -23.303127    6.450323   27.032409 C    346 MOH     0.1166 ****
2380 HC2   -23.866621    6.814481   26.173981 H    346 MOH     0.0372 ****
2381 HC3   -23.372987    7.200275   27.820833 H    346 MOH     0.0372 ****
2382 O1    -23.828516    5.207615   27.449602 O    346 MOH    -0.6497 ****
2383 HO1   -24.591196    5.359892   28.011752 H    346 MOH     0.4215 ****
2384 HC1    -9.400533    1.758734   29.542638 H    347 MOH     0.0372 ****
2385 C1     -8.966943    1.951835   30.523395 C    347 MOH     0.1166 ****
2386 HC2    -8.681154    3.002666   30.574307 H    347 MOH     0.0372 ****
2387 HC3    -8.078978    1.332523   30.649968 H    347 MOH     0.0372 ****
2388 O1     -9.921303    1.637076   31.531023 O    347 MOH    -0.6497 ****
2389 HO1    -9.720385    0.745462   31.823765 H    347 MOH     0.4215 ****
2390 HC1   -16.037751   -9.094955   21.910128 H    348 MOH     0.0372 ****
2391 C1    -16.224813  -10.080875   22.335099 C    348 MOH     0.1166 ****
2392 HC2   -16.616834   -9.986161   23.347676 H    348 MOH     0.0372 ****
2393 HC3   -15.267566  -10.597309   22.403688 H    348 MOH     0.0372 ****
2394 O1    -17.066012  -10.884716   21.485864 O    348 MOH    -0.6497 ****
2395 HO1   -17.781927  -11.230910   22.023265 H    348 MOH     0.4215 ****
2396 HC1    -5.330791    0.147378   24.927352 H    349 MOH     0.0372 ****
2397 C1     -5.525358    0.888757   25.702341 C    349 MOH     0.1166 ****
2398 HC2    -6.589414    0.930806   25.934980 H    349 MOH     0.0372 ****
2399 HC3    -5.223981    1.877126   25.355152 H    349 MOH     0.0372 ****
2400 O1     -4.855631    0.558484   26.913615 O    349 MOH    -0.6497 ****
2401 HO1    -5.073293   -0.335988   27.185852 H    349 MOH     0.4215 ****
2402 HC1   -14.512969   -1.547261   18.933208 H    350 MOH     0.0372 ****
2403 C1    -15.305094   -2.079617   19.459296 C    350 MOH     0.1166 ****
2404 HC2   -15.277958   -1.822012   20.517834 H    350 MOH     0.0372 ****
2405 HC3   -15.139394   -3.147186   19.317167 H    350 MOH     0.0372 ****
2406 O1    -16.533695   -1.664020   18.903510 O    350 MOH    -0.6497 ****
2407 HO1   -17.228248   -2.022870   19.461417 H    350 MOH     0.4215 ****
2408 HC1   -13.816685    6.343770   17.813858 H    351 MOH     0.0372 ****
2409 C1    -13.279172    6.686291   16.929268 C    351 MOH     0.1166 ****
2410 HC2   -13.607107    6.112294   16.062355 H    351 MOH     0.0372 ****
2411 HC3   -12.219734    6.501762   17.107458 H    351 MOH     0.0372 ****
2412 O1    -13.539557    8.066986   16.660567 O    351 MOH    -0.6497 ****
2413 HO1   -13.280327    8.271927   15.759713 H    351 MOH     0.4215 ****
2414 HC1   -10.447846    4.511552   26.456117 H    352 MOH     0.0372 ****
2415 C1    -10.399349    3.423979   26.405206 C    352 MOH     0.1166 ****
2416 HC2   -10.777513    3.069211   25.447076 H    352 MOH     0.0372 ****
2417 HC3   -11.006144    2.977355   27.192923 H    352 MOH     0.0372 ****
2418 O1     -9.062783    2.989602   26.478745 O    352 MOH    -0.6497 ****
2419 HO1    -9.095115    2.030219   26.499958 H    352 MOH     0.4215 ****
2420 HC1   -19.358093    3.486849   20.882702 H    353 MOH     0.0372 ****
2421 C1    -19.312482    3.032060   19.892752 C    353 MOH     0.1166 ****
2422 HC2   -18.395073    2.453164   19.783858 H    353 MOH     0.0372 ****
2423 HC3   -19.322874    3.809773   19.129784 H    353 MOH     0.0372 ****
2424 O1    -20.415799    2.195559   19.675670 O    353 MOH    -0.6497 ****
2425 HO1   -20.156568    1.308028   19.933057 H    353 MOH     0.4215 ****
2426 HC1   -11.250940   -1.070019   19.377978 H    354 MOH     0.0372 ****
2427 C1    -11.052332   -0.109410   19.852447 C    354 MOH     0.1166 ****
2428 HC2    -9.987698    0.107778   19.769008 H    354 MOH     0.0372 ****
2429 HC3   -11.281540   -0.144520   20.917350 H    354 MOH     0.0372 ****
2430 O1    -11.845611    0.886307   19.201202 O    354 MOH    -0.6497 ****
2431 HO1   -11.798268    1.662387   19.764766 H    354 MOH     0.4215 ****
2432 HC1   -12.409682   -6.537280   24.389951 H    355 MOH     0.0372 ****
2433 C1    -12.362340   -5.813864   25.204538 C    355 MOH     0.1166 ****
2434 HC2   -13.155619   -5.086365   25.033418 H    355 MOH     0.0372 ****
2435 HC3   -11.401629   -5.300287   25.157869 H    355 MOH     0.0372 ****
2436 O1    -12.547669   -6.455630   26.498544 O    355 MOH    -0.6497 ****
2437 HO1   -12.739349   -5.779979   27.154032 H    355 MOH     0.4215 ****
2438 HC1   -28.730220   -2.694439   22.967959 H    356 MOH     0.0372 ****
2439 C1    -28.687496   -2.452756   24.030034 C    356 MOH     0.1166 ****
2440 HC2   -27.650575   -2.514809   24.360960 H    356 MOH     0.0372 ****
2441 HC3   -29.285053   -3.154534   24.611983 H    356 MOH     0.0372 ****
2442 O1    -29.121086   -1.159017   24.299441 O    356 MOH    -0.6497 ****
2443 HO1   -29.890694   -0.967548   23.758505 H    356 MOH     0.4215 ****
2444 HC1    -5.651798    2.177188   28.708960 H    357 MOH     0.0372 ****
2445 C1     -5.569236    3.116976   29.254846 C    357 MOH     0.1166 ****
2446 HC2    -6.396002    3.772623   28.981903 H    357 MOH     0.0372 ****
2447 HC3    -4.611990    3.579113   29.010187 H    357 MOH     0.0372 ****
2448 O1     -5.610228    2.758942   30.596228 O    357 MOH    -0.6497 ****
2449 HO1    -5.386216    3.501954   31.160499 H    357 MOH     0.4215 ****
2450 HC1   -17.744399    6.801417   28.452280 H    358 MOH     0.0372 ****
2451 C1    -18.410084    7.660371   28.537132 C    358 MOH     0.1166 ****
2452 HC2   -19.452201    7.340304   28.530061 H    358 MOH     0.0372 ****
2453 HC3   -18.274984    8.284991   27.654663 H    358 MOH     0.0372 ****
2454 O1    -18.184340    8.457272   29.740628 O    358 MOH    -0.6497 ****
2455 HO1   -18.257086    7.890215   30.510667 H    358 MOH     0.4215 ****
2456 HC1   -25.420848   -0.585020   23.354747 H    359 MOH     0.0372 ****
2457 C1    -25.961248    0.284549   22.981394 C    359 MOH     0.1166 ****
2458 HC2   -26.404653   -0.044907   22.041649 H    359 MOH     0.0372 ****
2459 HC3   -25.238405    1.087574   22.835023 H    359 MOH     0.0372 ****
2460 O1    -26.952558    0.622987   23.974879 O    359 MOH    -0.6497 ****
2461 HO1   -27.588221   -0.091039   24.057611 H    359 MOH     0.4215 ****
2462 HC1   -26.977384   -7.357042   19.045638 H    360 MOH     0.0372 ****
2463 C1    -26.564579   -6.349486   19.008869 C    360 MOH     0.1166 ****
2464 HC2   -26.650027   -5.878775   19.988211 H    360 MOH     0.0372 ****
2465 HC3   -27.141352   -5.761608   18.294691 H    360 MOH     0.0372 ****
2466 O1    -25.225126   -6.405007   18.577533 O    360 MOH    -0.6497 ****
2467 HO1   -25.191640   -7.065553   17.881740 H    360 MOH     0.4215 ****
2468 HC1   -10.864116   -9.200283   24.994528 H    361 MOH     0.0372 ****
2469 C1    -11.544234   -9.768973   25.628802 C    361 MOH     0.1166 ****
2470 HC2   -11.189741   -9.731823   26.659057 H    361 MOH     0.0372 ****
2471 HC3   -11.599083  -10.805516   25.297169 H    361 MOH     0.0372 ****
2472 O1    -12.776877   -9.145986   25.546778 O    361 MOH    -0.6497 ****
2473 HO1   -12.674686   -8.253147   25.882654 H    361 MOH     0.4215 ****
2474 HC1   -16.996153   -2.736896   29.978216 H    362 MOH     0.0372 ****
2475 C1    -17.136449   -2.891214   28.909071 C    362 MOH     0.1166 ****
2476 HC2   -17.332748   -1.936730   28.419753 H    362 MOH     0.0372 ****
2477 HC3   -17.970720   -3.570131   28.733001 H    362 MOH     0.0372 ****
2478 O1    -15.960964   -3.445615   28.357527 O    362 MOH    -0.6497 ****
2479 HO1   -15.314332   -3.546453   29.059684 H    362 MOH     0.4215 ****
2480 HC1   -14.232955    5.299471   31.268686 H    363 MOH     0.0372 ****
2481 C1    -13.750290    4.333556   31.121608 C    363 MOH     0.1166 ****
2482 HC2   -14.523362    3.579521   30.973822 H    363 MOH     0.0372 ****
2483 HC3   -13.185641    4.091056   32.021048 H    363 MOH     0.0372 ****
2484 O1    -12.842118    4.361317   29.998722 O    363 MOH    -0.6497 ****
2485 HO1   -12.130822    4.965524   30.227825 H    363 MOH     0.4215 ****
2486 HC1   -19.539958   -2.943062   22.609456 H    364 MOH     0.0372 ****
2487 C1    -19.701039   -3.955926   22.977859 C    364 MOH     0.1166 ****
2488 HC2   -20.452172   -3.911018   23.765576 H    364 MOH     0.0372 ****
2489 HC3   -18.776124   -4.356417   23.392931 H    364 MOH     0.0372 ****
2490 O1    -20.152527   -4.802633   21.921441 O    364 MOH    -0.6497 ****
2491 HO1   -19.747804   -5.660771   22.071348 H    364 MOH     0.4215 ****
2492 HC1   -15.738684   10.100879   22.396617 H    365 MOH     0.0372 ****
2493 C1    -16.319498   10.482183   23.236660 C    365 MOH     0.1166 ****
2494 HC2   -16.022163   11.489332   23.528695 H    365 MOH     0.0372 ****
2495 HC3   -16.111652    9.826945   24.083067 H    365 MOH     0.0372 ****
2496 O1    -17.698788   10.438501   22.951696 O    365 MOH    -0.6497 ****
2497 HO1   -18.104088    9.763666   23.501118 H    365 MOH     0.4215 ****
2498 HC1   -10.940903   -2.687907   29.042007 H    366 MOH     0.0372 ****
2499 C1    -10.957647   -3.695055   28.624107 C    366 MOH     0.1166 ****
2500 HC2   -10.455929   -4.353560   29.331921 H    366 MOH     0.0372 ****
2501 HC3   -10.406277   -3.723632   27.683655 H    366 MOH     0.0372 ****
2502 O1    -12.300563   -4.130656   28.474907 O    366 MOH    -0.6497 ****
2503 HO1   -12.792466   -3.869785   29.257674 H    366 MOH     0.4215 ****
2504 HC1   -16.806205    1.103087   28.173680 H    367 MOH     0.0372 ****
2505 C1    -17.869684    1.303945   28.042158 C    367 MOH     0.1166 ****
2506 HC2   -18.451653    0.382937   28.069028 H    367 MOH     0.0372 ****
2507 HC3   -18.034806    1.774655   27.072714 H    367 MOH     0.0372 ****
2508 O1    -18.320017    2.194335   29.021501 O    367 MOH    -0.6497 ****
2509 HO1   -18.209743    3.088807   28.691282 H    367 MOH     0.4215 ****
2510 HC1   -13.093265    4.030636   25.377072 H    368 MOH     0.0372 ****
2511 C1    -13.497410    4.376422   24.426014 C    368 MOH     0.1166 ****
2512 HC2   -14.430408    3.853048   24.213882 H    368 MOH     0.0372 ****
2513 HC3   -12.776300    4.231494   23.622033 H    368 MOH     0.0372 ****
2514 O1    -13.743939    5.742421   24.580163 O    368 MOH    -0.6497 ****
2515 HO1   -12.919483    6.198026   24.768253 H    368 MOH     0.4215 ****
2516 HC1   -17.895665    4.702612   22.913512 H    369 MOH     0.0372 ****
2517 C1    -18.132956    4.416022   23.938817 C    369 MOH     0.1166 ****
2518 HC2   -17.370853    3.753435   24.348232 H    369 MOH     0.0372 ****
2519 HC3   -19.086161    3.887340   23.919725 H    369 MOH     0.0372 ****
2520 O1    -18.234569    5.542379   24.776739 O    369 MOH    -0.6497 ****
2521 HO1   -17.460920    6.098821   24.657238 H    369 MOH     0.4215 ****
2522 HC1   -10.853723    5.917967   23.710422 H    370 MOH     0.0372 ****
2523 C1    -10.433412    6.801417   24.191254 C    370 MOH     0.1166 ****
2524 HC2   -10.179956    7.543204   23.433943 H    370 MOH     0.0372 ****
2525 HC3    -9.546602    6.518501   24.757647 H    370 MOH     0.0372 ****
2526 O1    -11.438579    7.297847   25.014326 O    370 MOH    -0.6497 ****
2527 HO1   -11.082354    7.494214   25.883361 H    370 MOH     0.4215 ****
2528 HC1   -22.188841    3.956334   24.900482 H    371 MOH     0.0372 ****
2529 C1    -22.771388    3.083500   25.196053 C    371 MOH     0.1166 ****
2530 HC2   -22.435370    2.168615   24.708856 H    371 MOH     0.0372 ****
2531 HC3   -23.791566    3.263537   24.858763 H    371 MOH     0.0372 ****
2532 O1    -22.778316    2.936530   26.598953 O    371 MOH    -0.6497 ****
2533 HO1   -22.964800    3.798342   26.980083 H    371 MOH     0.4215 ****
2534 HC1   -23.019648    0.941829   29.171407 H    372 MOH     0.0372 ****
2535 C1    -21.987923    0.658096   28.965639 C    372 MOH     0.1166 ****
2536 HC2   -21.717146   -0.167790   29.622541 H    372 MOH     0.0372 ****
2537 HC3   -21.339559    1.508886   29.176357 H    372 MOH     0.0372 ****
2538 O1    -21.849937    0.338846   27.603751 O    372 MOH    -0.6497 ****
2539 HO1   -22.146695    1.131664   27.151203 H    372 MOH     0.4215 ****
2540 HC1   -17.525583    0.214331   23.484855 H    373 MOH     0.0372 ****
2541 C1    -17.511149    0.921825   22.655418 C    373 MOH     0.1166 ****
2542 HC2   -18.501882    1.352935   22.513997 H    373 MOH     0.0372 ****
2543 HC3   -17.172245    0.428661   21.744665 H    373 MOH     0.0372 ****
2544 O1    -16.634154    1.973472   22.962303 O    373 MOH    -0.6497 ****
2545 HO1   -16.437855    1.980413   23.902048 H    373 MOH     0.4215 ****
2546 HC1   -26.322669   -3.241900   21.268782 H    374 MOH     0.0372 ****
2547 C1    -25.534586   -3.207607   20.516420 C    374 MOH     0.1166 ****
2548 HC2   -25.954897   -2.816097   19.589403 H    374 MOH     0.0372 ****
2549 HC3   -25.136792   -4.205366   20.329744 H    374 MOH     0.0372 ****
2550 O1    -24.528265   -2.307419   20.866438 O    374 MOH    -0.6497 ****
2551 HO1   -23.700922   -2.772414   20.722895 H    374 MOH     0.4215 ****
2552 HC1   -23.118952   -3.862437   18.550663 H    375 MOH     0.0372 ****
2553 C1    -22.688827   -4.432352   19.375150 C    375 MOH     0.1166 ****
2554 HC2   -21.913445   -5.076159   18.960078 H    375 MOH     0.0372 ****
2555 HC3   -23.434186   -5.081058   19.835476 H    375 MOH     0.0372 ****
2556 O1    -22.119559   -3.537880   20.314895 O    375 MOH    -0.6497 ****
2557 HO1   -21.705022   -4.077176   20.991596 H    375 MOH     0.4215 ****
2558 HC1   -12.771681    4.852848   20.836033 H    376 MOH     0.0372 ****
2559 C1    -12.028054    4.331923   20.233578 C    376 MOH     0.1166 ****
2560 HC2   -11.112376    4.921433   20.185494 H    376 MOH     0.0372 ****
2561 HC3   -12.364072    4.210673   19.203323 H    376 MOH     0.0372 ****
2562 O1    -11.689727    3.103095   20.817648 O    376 MOH    -0.6497 ****
2563 HO1   -12.393517    2.831610   21.410910 H    376 MOH     0.4215 ****
2564 HC1   -12.055767   -0.824253   25.495866 H    377 MOH     0.0372 ****
2565 C1    -12.095026   -1.893864   25.290805 C    377 MOH     0.1166 ****
2566 HC2   -12.873295   -2.322116   25.922252 H    377 MOH     0.0372 ****
2567 HC3   -11.126233   -2.330281   25.534757 H    377 MOH     0.0372 ****
2568 O1    -12.383702   -2.185761   23.922554 O    377 MOH    -0.6497 ****
2569 HO1   -11.954153   -3.000217   23.650318 H    377 MOH     0.4215 ****
2570 HC1    -7.894226   -2.144120   23.249388 H    378 MOH     0.0372 ****
2571 C1     -8.416728   -1.214947   23.477076 C    378 MOH     0.1166 ****
2572 HC2    -9.449030   -1.428052   23.755676 H    378 MOH     0.0372 ****
2573 HC3    -8.376313   -0.568690   22.600971 H    378 MOH     0.0372 ****
2574 O1     -7.729104   -0.651564   24.543393 O    378 MOH    -0.6497 ****
2575 HO1    -7.266646   -1.366815   24.986042 H    378 MOH     0.4215 ****
2576 HC1   -13.021096    0.000408   22.868257 H    379 MOH     0.0372 ****
2577 C1    -13.958136    0.256380   22.375404 C    379 MOH     0.1166 ****
2578 HC2   -14.796448   -0.075526   22.988466 H    379 MOH     0.0372 ****
2579 HC3   -13.976611   -0.242499   21.406668 H    379 MOH     0.0372 ****
2580 O1    -13.988735    1.639934   22.158322 O    379 MOH    -0.6497 ****
2581 HO1   -14.904990    1.881208   22.006294 H    379 MOH     0.4215 ****
2582 HC1   -16.350675   -4.709552   21.160595 H    380 MOH     0.0372 ****
2583 C1    -16.045257   -5.689756   20.793606 C    380 MOH     0.1166 ****
2584 HC2   -15.096093   -5.610148   20.263983 H    380 MOH     0.0372 ****
2585 HC3   -16.811978   -6.082083   20.126804 H    380 MOH     0.0372 ****
2586 O1    -15.891682   -6.610356   21.867701 O    380 MOH    -0.6497 ****
2587 HO1   -15.042400   -7.044324   21.759514 H    380 MOH     0.4215 ****
2588 HC1   -10.509623   -7.357859   27.833561 H    381 MOH     0.0372 ****
2589 C1     -9.638401   -6.854489   27.414247 C    381 MOH     0.1166 ****
2590 HC2    -9.936314   -5.905311   26.970891 H    381 MOH     0.0372 ****
2591 HC3    -9.199615   -7.466045   26.625116 H    381 MOH     0.0372 ****
2592 O1     -8.669607   -6.579329   28.399954 O    381 MOH    -0.6497 ****
2593 HO1    -8.239481   -7.417463   28.583095 H    381 MOH     0.4215 ****
2594 HC1   -19.064799   -1.034093   16.085689 H    382 MOH     0.0372 ****
2595 C1    -18.141038   -0.845890   15.537681 C    382 MOH     0.1166 ****
2596 HC2   -17.550409   -1.760775   15.575158 H    382 MOH     0.0372 ****
2597 HC3   -17.618536   -0.022454   16.024878 H    382 MOH     0.0372 ****
2598 O1    -18.414125   -0.493572   14.183572 O    382 MOH    -0.6497 ****
2599 HO1   -17.632393   -0.071443   13.820119 H    382 MOH     0.4215 ****
2600 HC1   -14.956952    8.221712   26.106806 H    383 MOH     0.0372 ****
2601 C1    -15.971934    7.838367   26.002862 C    383 MOH     0.1166 ****
2602 HC2   -16.693044    8.655680   26.024075 H    383 MOH     0.0372 ****
2603 HC3   -16.206915    7.143529   26.808963 H    383 MOH     0.0372 ****
2604 O1    -16.099528    7.126382   24.820579 O    383 MOH    -0.6497 ****
2605 HO1   -15.378995    6.493189   24.788759 H    383 MOH     0.4215 ****
2606 HC1   -21.478123   -5.772222   26.996347 H    384 MOH     0.0372 ****
2607 C1    -20.621335   -6.030235   26.372679 C    384 MOH     0.1166 ****
2608 HC2   -20.435428   -5.237009   25.649308 H    384 MOH     0.0372 ****
2609 HC3   -20.867286   -6.934097   25.815478 H    384 MOH     0.0372 ****
2610 O1    -19.457974   -6.220887   27.173831 O    384 MOH    -0.6497 ****
2611 HO1   -18.761690   -6.568715   26.612388 H    384 MOH     0.4215 ****
2612 HC1   -15.423451   -6.112293   26.179639 H    385 MOH     0.0372 ****
2613 C1    -15.921704   -6.887965   25.599811 C    385 MOH     0.1166 ****
2614 HC2   -15.194820   -7.633426   25.277370 H    385 MOH     0.0372 ****
2615 HC3   -16.384162   -6.413989   24.733605 H    385 MOH     0.0372 ****
2616 O1    -16.896849   -7.518709   26.396720 O    385 MOH    -0.6497 ****
2617 HO1   -16.425154   -7.887765   27.146253 H    385 MOH     0.4215 ****
2618 HC1   -12.082902   -0.060421   33.366672 H    386 MOH     0.0372 ****
2619 C1    -12.705286    0.834051   33.357479 C    386 MOH     0.1166 ****
2620 HC2   -12.261303    1.621154   33.967005 H    386 MOH     0.0372 ****
2621 HC3   -13.676966    0.556034   33.766894 H    386 MOH     0.0372 ****
2622 O1    -12.884842    1.286799   32.035897 O    386 MOH    -0.6497 ****
2623 HO1   -12.027477    1.562366   31.702850 H    386 MOH     0.4215 ****
2624 HC1   -16.098951    5.586470   21.886086 H    387 MOH     0.0372 ****
2625 C1    -15.506012    5.248032   21.036851 C    387 MOH     0.1166 ****
2626 HC2   -15.138817    4.252314   21.285045 H    387 MOH     0.0372 ****
2627 HC3   -14.659039    5.917967   20.884823 H    387 MOH     0.0372 ****
2628 O1    -16.310261    5.197001   19.866589 O    387 MOH    -0.6497 ****
2629 HO1   -15.903229    4.546661   19.288883 H    387 MOH     0.4215 ****
2630 HC1   -20.342475    5.907353   27.548597 H    388 MOH     0.0372 ****
2631 C1    -20.161187    4.869178   27.827904 C    388 MOH     0.1166 ****
2632 HC2   -20.820521    4.231902   27.238884 H    388 MOH     0.0372 ****
2633 HC3   -20.385776    4.714451   28.883615 H    388 MOH     0.0372 ****
2634 O1    -18.830972    4.473585   27.586781 O    388 MOH    -0.6497 ****
2635 HO1   -18.651416    4.581771   26.649864 H    388 MOH     0.4215 ****
2636 HC1   -16.454021    0.119209   31.207168 H    389 MOH     0.0372 ****
2637 C1    -16.000224    0.998576   31.663959 C    389 MOH     0.1166 ****
2638 HC2   -15.163066    1.315376   31.041705 H    389 MOH     0.0372 ****
2639 HC3   -15.696538    0.749544   32.680778 H    389 MOH     0.0372 ****
2640 O1    -16.950542    1.996334   31.628603 O    389 MOH    -0.6497 ****
2641 HO1   -17.278477    2.051856   30.727749 H    389 MOH     0.4215 ****
2642 HC1   -17.084488   -2.479700   23.854671 H    390 MOH     0.0372 ****
2643 C1    -16.157263   -2.656471   24.398437 C    390 MOH     0.1166 ****
2644 HC2   -16.223081   -3.581154   24.971900 H    390 MOH     0.0372 ****
2645 HC3   -15.933828   -1.819971   25.060996 H    390 MOH     0.0372 ****
2646 O1    -15.153828   -2.758534   23.467884 O    390 MOH    -0.6497 ****
2647 HO1   -14.343806   -2.417646   23.854671 H    390 MOH     0.4215 ****
2648 HC1   -19.181424   -2.335588   18.581776 H    391 MOH     0.0372 ****
2649 C1    -18.901409   -3.243941   19.115642 C    391 MOH     0.1166 ****
2650 HC2   -18.093118   -3.739554   18.578241 H    391 MOH     0.0372 ****
2651 HC3   -19.732216   -3.949802   19.138976 H    391 MOH     0.0372 ****
2652 O1    -18.463777   -2.982662   20.435103 O    391 MOH    -0.6497 ****
2653 HO1   -18.811342   -3.687298   20.986646 H    391 MOH     0.4215 ****
2654 HC1    -7.997572   -2.863453   31.984985 H    392 MOH     0.0372 ****
2655 C1     -8.828956   -2.180046   31.815280 C    392 MOH     0.1166 ****
2656 HC2    -9.750984   -2.640141   32.172369 H    392 MOH     0.0372 ****
2657 HC3    -8.899393   -1.991843   30.744013 H    392 MOH     0.0372 ****
2658 O1     -8.501021   -0.959383   32.467232 O    392 MOH    -0.6497 ****
2659 HO1    -7.887875   -1.156567   33.179289 H    392 MOH     0.4215 ****
2660 HC1    -8.237749   -0.037150   28.007510 H    393 MOH     0.0372 ****
2661 C1     -9.247535   -0.358034   27.751537 C    393 MOH     0.1166 ****
2662 HC2    -9.944974    0.072668   28.470665 H    393 MOH     0.0372 ****
2663 HC3    -9.328941   -1.444382   27.786185 H    393 MOH     0.0372 ****
2664 O1     -9.602605    0.101246   26.479452 O    393 MOH    -0.6497 ****
2665 HO1    -9.003893   -0.306186   25.850127 H    393 MOH     0.4215 ****
2666 HC1   -12.434508    7.071269   29.281716 H    394 MOH     0.0372 ****
2667 C1    -12.926988    7.507686   28.412682 C    394 MOH     0.1166 ****
2668 HC2   -13.869224    7.995135   28.662997 H    394 MOH     0.0372 ****
2669 HC3   -13.179290    6.673227   27.757901 H    394 MOH     0.0372 ****
2670 O1    -12.089253    8.432777   27.712646 O    394 MOH    -0.6497 ****
2671 HO1   -12.630230    9.132514   27.340708 H    394 MOH     0.4215 ****
2672 HC1   -14.526826  -13.145595   25.759617 H    395 MOH     0.0372 ****
2673 C1    -14.559735  -12.060471   25.660622 C    395 MOH     0.1166 ****
2674 HC2   -14.114598  -11.591394   26.538142 H    395 MOH     0.0372 ****
2675 HC3   -15.597233  -11.734689   25.585669 H    395 MOH     0.0372 ****
2676 O1    -13.873843  -11.683249   24.495310 O    395 MOH    -0.6497 ****
2677 HO1   -13.772229  -10.729990   24.535615 H    395 MOH     0.4215 ****
2678 HC1    -6.093470   -4.328656   26.942607 H    396 MOH     0.0372 ****
2679 C1     -6.999333   -4.004099   26.431369 C    396 MOH     0.1166 ****
2680 HC2    -7.884988   -4.396834   26.930586 H    396 MOH     0.0372 ****
2681 HC3    -6.991827   -4.352335   25.398286 H    396 MOH     0.0372 ****
2682 O1     -7.092286   -2.611972   26.445511 O    396 MOH    -0.6497 ****
2683 HO1    -6.822087   -2.326607   27.321616 H    396 MOH     0.4215 ****
2684 HC1   -13.559187    0.235151   28.927455 H    397 MOH     0.0372 ****
2685 C1    -12.895811   -0.586653   29.196863 C    397 MOH     0.1166 ****
2686 HC2   -11.879675   -0.200450   29.274645 H    397 MOH     0.0372 ****
2687 HC3   -12.909668   -1.369265   28.438138 H    397 MOH     0.0372 ****
2688 O1    -13.273976   -1.013680   30.483797 O    397 MOH    -0.6497 ****
2689 HO1   -13.220282   -0.244541   31.055140 H    397 MOH     0.4215 ****
2690 HC1    -9.779275    6.434402   33.030796 H    398 MOH     0.0372 ****
2691 C1    -10.118757    5.688532   32.311668 C    398 MOH     0.1166 ****
2692 HC2   -10.625093    4.851215   32.793208 H    398 MOH     0.0372 ****
2693 HC3    -9.231947    5.291715   31.816694 H    398 MOH     0.0372 ****
2694 O1    -10.959956    6.309069   31.357074 O    398 MOH    -0.6497 ****
2695 HO1   -10.430526    6.994110   30.941296 H    398 MOH     0.4215 ****
2696 HC1   -19.072882   -0.801799   24.049833 H    399 MOH     0.0372 ****
2697 C1    -19.703348   -1.115334   24.881390 C    399 MOH     0.1166 ****
2698 HC2   -20.679648   -1.428052   24.510866 H    399 MOH     0.0372 ****
2699 HC3   -19.873667   -0.288223   25.571527 H    399 MOH     0.0372 ****
2700 O1    -19.101172   -2.169431   25.577183 O    399 MOH    -0.6497 ****
2701 HO1   -19.751846   -2.523791   26.186710 H    399 MOH     0.4215 ****
2702 HC1   -16.410720    3.930615   27.193630 H    400 MOH     0.0372 ****
2703 C1    -15.754273    4.206182   28.018823 C    400 MOH     0.1166 ****
2704 HC2   -16.301023    4.170256   28.962104 H    400 MOH     0.0372 ****
2705 HC3   -15.407862    5.228844   27.868209 H    400 MOH     0.0372 ****
2706 O1    -14.635368    3.334164   28.083877 O    400 MOH    -0.6497 ****
2707 HO1   -14.030305    3.660763   28.754214 H    400 MOH     0.4215 ****
2708 HC1   -17.796938    5.569732   33.753459 H    401 MOH     0.0372 ****
2709 C1    -17.214969    5.812231   32.863919 C    401 MOH     0.1166 ****
2710 HC2   -17.251342    4.990427   32.149034 H    401 MOH     0.0372 ****
2711 HC3   -16.187863    5.955526   33.201209 H    401 MOH     0.0372 ****
2712 O1    -17.680890    7.056572   32.332175 O    401 MOH    -0.6497 ****
2713 HO1   -17.265198    7.733856   32.870283 H    401 MOH     0.4215 ****
2714 HC1   -20.580343    0.898555   22.089026 H    402 MOH     0.0372 ****
2715 C1    -20.713711   -0.124107   21.736179 C    402 MOH     0.1166 ****
2716 HC2   -21.712527   -0.201675   21.307673 H    402 MOH     0.0372 ****
2717 HC3   -20.640388   -0.840991   22.553595 H    402 MOH     0.0372 ****
2718 O1    -19.793415   -0.401308   20.724310 O    402 MOH    -0.6497 ****
2719 HO1   -19.677368   -1.349260   20.632386 H    402 MOH     0.4215 ****
2720 HC1   -18.393341   -8.376030   21.046750 H    403 MOH     0.0372 ****
2721 C1    -19.130039   -8.030244   21.771535 C    403 MOH     0.1166 ****
2722 HC2   -19.400817   -8.838167   22.452479 H    403 MOH     0.0372 ****
2723 HC3   -20.038789   -7.730589   21.251104 H    403 MOH     0.0372 ****
2724 O1    -18.690099   -6.948794   22.565616 O    403 MOH    -0.6497 ****
2725 HO1   -17.742667   -7.017380   22.701380 H    403 MOH     0.4215 ****
2726 HC1   -17.444754    8.179255   21.398889 H    404 MOH     0.0372 ****
2727 C1    -18.292304    7.514626   21.568595 C    404 MOH     0.1166 ****
2728 HC2   -19.157752    8.158434   21.724866 H    404 MOH     0.0372 ****
2729 HC3   -18.059632    6.912868   22.446822 H    404 MOH     0.0372 ****
2730 O1    -18.425672    6.812848   20.353079 O    404 MOH    -0.6497 ****
2731 HO1   -17.579854    6.407049   20.148018 H    404 MOH     0.4215 ****
2732 HC1    -6.493574   -5.434601   31.379702 H    405 MOH     0.0372 ****
2733 C1     -6.109636   -4.837742   30.552387 C    405 MOH     0.1166 ****
2734 HC2    -5.422012   -5.455013   29.973974 H    405 MOH     0.0372 ****
2735 HC3    -5.608496   -3.975930   30.994329 H    405 MOH     0.0372 ****
2736 O1     -7.174848   -4.398059   29.765377 O    405 MOH    -0.6497 ****
2737 HO1    -7.704278   -5.154134   29.503748 H    405 MOH     0.4215 ****
2738 HC1   -21.415192    9.185178   24.648752 H    406 MOH     0.0372 ****
2739 C1    -20.543970    8.529940   24.629660 C    406 MOH     0.1166 ****
2740 HC2   -20.544548    7.958392   23.701936 H    406 MOH     0.0372 ****
2741 HC3   -20.571683    7.820813   25.457682 H    406 MOH     0.0372 ****
2742 O1    -19.365598    9.314593   24.703199 O    406 MOH    -0.6497 ****
2743 HO1   -19.395043    9.825312   25.515665 H    406 MOH     0.4215 ****
2744 HC1    -6.601539    0.022046   30.115395 H    407 MOH     0.0372 ****
2745 C1     -5.961257   -0.853239   30.224289 C    407 MOH     0.1166 ****
2746 HC2    -6.111368   -1.254139   31.226967 H    407 MOH     0.0372 ****
2747 HC3    -4.922604   -0.540521   30.118223 H    407 MOH     0.0372 ****
2748 O1     -6.340576   -1.795068   29.220905 O    407 MOH    -0.6497 ****
2749 HO1    -6.411590   -2.668311   29.613349 H    407 MOH     0.4215 ****
2750 HC1   -25.600404    2.420096   27.173830 H    408 MOH     0.0372 ****
2751 C1    -25.333091    1.415397   27.502635 C    408 MOH     0.1166 ****
2752 HC2   -24.388546    1.125949   27.042309 H    408 MOH     0.0372 ****
2753 HC3   -26.095771    0.701779   27.192922 H    408 MOH     0.0372 ****
2754 O1    -25.165659    1.423154   28.931698 O    408 MOH    -0.6497 ****
2755 HO1   -25.994157    1.610948   29.378589 H    408 MOH     0.4215 ****
2756 HC1    -8.465803    2.235568   34.536226 H    409 MOH     0.0372 ****
2757 C1     -7.607283    2.597276   33.970541 C    409 MOH     0.1166 ****
2758 HC2    -7.955425    3.116568   33.078172 H    409 MOH     0.0372 ****
2759 HC3    -6.977971    1.756693   33.677092 H    409 MOH     0.0372 ****
2760 O1     -6.857882    3.486849   34.766036 O    409 MOH    -0.6497 ****
2761 HO1    -6.690451    3.068394   35.613857 H    409 MOH     0.4215 ****
2762 HC1    -7.666750    3.556659   24.604205 H    410 MOH     0.0372 ****
2763 C1     -8.113619    3.970623   23.700522 C    410 MOH     0.1166 ****
2764 HC2    -9.141303    4.289465   23.872349 H    410 MOH     0.0372 ****
2765 HC3    -8.083019    3.198217   22.931190 H    410 MOH     0.0372 ****
2766 O1     -7.303019    5.034926   23.312321 O    410 MOH    -0.6497 ****
2767 HO1    -7.121154    5.581163   24.080238 H    410 MOH     0.4215 ****
2768 HC1   -14.440801    1.304353   19.198373 H    411 MOH     0.0372 ****
2769 C1    -15.365138    1.819563   18.936744 C    411 MOH     0.1166 ****
2770 HC2   -16.078166    1.772614   19.760523 H    411 MOH     0.0372 ****
2771 HC3   -15.801038    1.373347   18.043668 H    411 MOH     0.0372 ****
2772 O1    -15.127270    3.168823   18.657437 O    411 MOH    -0.6497 ****
2773 HO1   -14.622666    3.199034   17.841435 H    411 MOH     0.4215 ****
2774 HC1   -24.181277   -8.915326   19.737896 H    412 MOH     0.0372 ****
2775 C1    -23.667435   -8.606282   20.647942 C    412 MOH     0.1166 ****
2776 HC2   -22.584326   -8.632410   20.531977 H    412 MOH     0.0372 ****
2777 HC3   -23.970544   -9.245599   21.478085 H    412 MOH     0.0372 ****
2778 O1    -24.106799   -7.348877   20.930785 O    412 MOH    -0.6497 ****
2779 HO1   -24.438775   -6.986761   20.105591 H    412 MOH     0.4215 ****
2780 HC1   -22.329715   -5.706494   23.471419 H    413 MOH     0.0372 ****
2781 C1    -23.211906   -5.123108   23.732342 C    413 MOH     0.1166 ****
2782 HC2   -22.907642   -4.124532   24.043469 H    413 MOH     0.0372 ****
2783 HC3   -23.747110   -5.613006   24.545515 H    413 MOH     0.0372 ****
2784 O1    -24.032898   -5.067994   22.564909 O    413 MOH    -0.6497 ****
2785 HO1   -24.123542   -5.956751   22.212062 H    413 MOH     0.4215 ****
2786 HC1   -15.486382    8.038817   31.383237 H    414 MOH     0.0372 ****
2787 C1    -14.540682    8.381746   31.803259 C    414 MOH     0.1166 ****
2788 HC2   -14.654420    9.356235   32.279142 H    414 MOH     0.0372 ****
2789 HC3   -13.810912    8.495239   31.001400 H    414 MOH     0.0372 ****
2790 O1    -14.099009    7.459513   32.775530 O    414 MOH    -0.6497 ****
2791 HO1   -13.267625    7.071269   32.493395 H    414 MOH     0.4215 ****
2792 HC1   -15.568366   -0.026944   26.453996 H    415 MOH     0.0372 ****
2793 C1    -14.786633    0.646257   26.102564 C    415 MOH     0.1166 ****
2794 HC2   -14.227181    0.211473   25.274542 H    415 MOH     0.0372 ****
2795 HC3   -14.101319    0.851198   26.924222 H    415 MOH     0.0372 ****
2796 O1    -15.360520    1.845691   25.657087 O    415 MOH    -0.6497 ****
2797 HO1   -15.165375    2.489090   26.342980 H    415 MOH     0.4215 ****
2798 HC1   -10.668509   22.713955   26.725525 H    416 MOH     0.0372 ****
2799 C1    -11.704853   22.852760   27.032409 C    416 MOH     0.1166 ****
2800 HC2   -12.268347   23.216917   26.173981 H    416 MOH     0.0372 ****
2801 HC3   -11.774713   23.602712   27.820833 H    416 MOH     0.0372 ****
2802 O1    -12.230242   21.610052   27.449602 O    416 MOH    -0.6497 ****
2803 HO1   -12.992922   21.762329   28.011752 H    416 MOH     0.4215 ****
2804 HC1    -4.439477    7.307481   21.910128 H    417 MOH     0.0372 ****
2805 C1     -4.626539    6.321562   22.335099 C    417 MOH     0.1166 ****
2806 HC2    -5.018560    6.416275   23.347676 H    417 MOH     0.0372 ****
2807 HC3    -3.669292    5.805128   22.403688 H    417 MOH     0.0372 ****
2808 O1     -5.467738    5.517721   21.485864 O    417 MOH    -0.6497 ****
2809 HO1    -6.183653    5.171526   22.023265 H    417 MOH     0.4215 ****
2810 HC1    -1.809070    7.779416   28.547032 H    418 MOH     0.0372 ****
2811 C1     -2.657775    8.214201   29.075241 C    418 MOH     0.1166 ****
2812 HC2    -2.794029    9.241353   28.737244 H    418 MOH     0.0372 ****
2813 HC3    -2.493230    8.201953   30.152872 H    418 MOH     0.0372 ****
2814 O1     -3.823445    7.516096   28.741486 O    418 MOH    -0.6497 ****
2815 HO1    -3.796309    6.715521   29.271109 H    418 MOH     0.4215 ****
2816 HC1    -2.914695   14.855176   18.933208 H    419 MOH     0.0372 ****
2817 C1     -3.706820   14.322820   19.459296 C    419 MOH     0.1166 ****
2818 HC2    -3.679684   14.580425   20.517834 H    419 MOH     0.0372 ****
2819 HC3    -3.541120   13.255251   19.317167 H    419 MOH     0.0372 ****
2820 O1     -4.935421   14.738417   18.903510 O    419 MOH    -0.6497 ****
2821 HO1    -5.629974   14.379566   19.461417 H    419 MOH     0.4215 ****
2822 HC1    -2.218411   22.746207   17.813858 H    420 MOH     0.0372 ****
2823 C1     -1.680898   23.088727   16.929268 C    420 MOH     0.1166 ****
2824 HC2    -2.008833   22.514730   16.062355 H    420 MOH     0.0372 ****
2825 HC3    -0.621460   22.904199   17.107458 H    420 MOH     0.0372 ****
2826 O1     -1.941283   24.469423   16.660567 O    420 MOH    -0.6497 ****
2827 HO1    -1.682052   24.674363   15.759713 H    420 MOH     0.4215 ****
2828 HC1     1.150428   20.913989   26.456117 H    421 MOH     0.0372 ****
2829 C1      1.198925   19.826415   26.405206 C    421 MOH     0.1166 ****
2830 HC2     0.820761   19.471647   25.447076 H    421 MOH     0.0372 ****
2831 HC3     0.592130   19.379791   27.192923 H    421 MOH     0.0372 ****
2832 O1      2.535491   19.392039   26.478745 O    421 MOH    -0.6497 ****
2833 HO1     2.503160   18.432655   26.499958 H    421 MOH     0.4215 ****
2834 HC1    -7.759819   19.889285   20.882702 H    422 MOH     0.0372 ****
2835 C1     -7.714208   19.434497   19.892752 C    422 MOH     0.1166 ****
2836 HC2    -6.796798   18.855601   19.783858 H    422 MOH     0.0372 ****
2837 HC3    -7.724600   20.212210   19.129784 H    422 MOH     0.0372 ****
2838 O1     -8.817524   18.597996   19.675670 O    422 MOH    -0.6497 ****
2839 HO1    -8.558294   17.710464   19.933057 H    422 MOH     0.4215 ****
2840 HC1     0.347334   15.332418   19.377978 H    423 MOH     0.0372 ****
2841 C1      0.545942   16.293026   19.852447 C    423 MOH     0.1166 ****
2842 HC2     1.610576   16.510214   19.769008 H    423 MOH     0.0372 ****
2843 HC3     0.316734   16.257917   20.917350 H    423 MOH     0.0372 ****
2844 O1     -0.247337   17.288744   19.201202 O    423 MOH    -0.6497 ****
2845 HO1    -0.199994   18.064824   19.764766 H    423 MOH     0.4215 ****
2846 HC1   -14.077763   14.045619   27.823662 H    424 MOH     0.0372 ****
2847 C1    -13.163240   14.351806   27.315959 C    424 MOH     0.1166 ****
2848 HC2   -12.567992   15.006228   27.953062 H    424 MOH     0.0372 ****
2849 HC3   -13.438636   14.898042   26.413691 H    424 MOH     0.0372 ****
2850 O1    -12.461182   13.212385   26.917858 O    424 MOH    -0.6497 ****
2851 HO1   -11.526452   13.411201   27.007660 H    424 MOH     0.4215 ****
2852 HC1    -0.811408    9.865157   24.389951 H    425 MOH     0.0372 ****
2853 C1     -0.764066   10.588573   25.204538 C    425 MOH     0.1166 ****
2854 HC2    -1.557345   11.316071   25.033418 H    425 MOH     0.0372 ****
2855 HC3     0.196645   11.102149   25.157869 H    425 MOH     0.0372 ****
2856 O1     -0.949395    9.946806   26.498544 O    425 MOH    -0.6497 ****
2857 HO1    -1.141075   10.622457   27.154032 H    425 MOH     0.4215 ****
2858 HC1   -17.131946   13.707998   22.967959 H    426 MOH     0.0372 ****
2859 C1    -17.089222   13.949681   24.030034 C    426 MOH     0.1166 ****
2860 HC2   -16.052301   13.887627   24.360960 H    426 MOH     0.0372 ****
2861 HC3   -17.686779   13.247902   24.611983 H    426 MOH     0.0372 ****
2862 O1    -17.522812   15.243420   24.299441 O    426 MOH    -0.6497 ****
2863 HO1   -18.292420   15.434888   23.758505 H    426 MOH     0.4215 ****
2864 HC1   -13.822574   15.817417   23.354747 H    427 MOH     0.0372 ****
2865 C1    -14.362974   16.686986   22.981394 C    427 MOH     0.1166 ****
2866 HC2   -14.806379   16.357529   22.041649 H    427 MOH     0.0372 ****
2867 HC3   -13.640131   17.490010   22.835023 H    427 MOH     0.0372 ****
2868 O1    -15.354284   17.025424   23.974879 O    427 MOH    -0.6497 ****
2869 HO1   -15.989947   16.311397   24.057611 H    427 MOH     0.4215 ****
2870 HC1   -15.379110    9.045394   19.045638 H    428 MOH     0.0372 ****
2871 C1    -14.966305   10.052951   19.008869 C    428 MOH     0.1166 ****
2872 HC2   -15.051753   10.523661   19.988211 H    428 MOH     0.0372 ****
2873 HC3   -15.543078   10.640829   18.294691 H    428 MOH     0.0372 ****
2874 O1    -13.626852    9.997429   18.577533 O    428 MOH    -0.6497 ****
2875 HO1   -13.593366    9.336883   17.881740 H    428 MOH     0.4215 ****
2876 HC1     0.734158    7.202153   24.994528 H    429 MOH     0.0372 ****
2877 C1      0.054040    6.633463   25.628802 C    429 MOH     0.1166 ****
2878 HC2     0.408533    6.670614   26.659057 H    429 MOH     0.0372 ****
2879 HC3    -0.000809    5.596921   25.297169 H    429 MOH     0.0372 ****
2880 O1     -1.178603    7.256450   25.546778 O    429 MOH    -0.6497 ****
2881 HO1    -1.076412    8.149289   25.882654 H    429 MOH     0.4215 ****
2882 HC1    -5.397879   13.665540   29.978216 H    430 MOH     0.0372 ****
2883 C1     -5.538175   13.511222   28.909071 C    430 MOH     0.1166 ****
2884 HC2    -5.734474   14.465707   28.419753 H    430 MOH     0.0372 ****
2885 HC3    -6.372446   12.832305   28.733001 H    430 MOH     0.0372 ****
2886 O1     -4.362690   12.956821   28.357527 O    430 MOH    -0.6497 ****
2887 HO1    -3.716058   12.855984   29.059684 H    430 MOH     0.4215 ****
2888 HC1    -7.941684   13.459375   22.609456 H    431 MOH     0.0372 ****
2889 C1     -8.102765   12.446511   22.977859 C    431 MOH     0.1166 ****
2890 HC2    -8.853898   12.491418   23.765576 H    431 MOH     0.0372 ****
2891 HC3    -7.177850   12.046019   23.392931 H    431 MOH     0.0372 ****
2892 O1     -8.554253   11.599804   21.921441 O    431 MOH    -0.6497 ****
2893 HO1    -8.149530   10.741666   22.071348 H    431 MOH     0.4215 ****
2894 HC1     1.063825    7.576517   30.223582 H    432 MOH     0.0372 ****
2895 C1      0.897548    7.663474   31.297677 C    432 MOH     0.1166 ****
2896 HC2     0.969717    8.719612   31.557186 H    432 MOH     0.0372 ****
2897 HC3     1.684477    7.109481   31.810330 H    432 MOH     0.0372 ****
2898 O1     -0.428048    7.144590   31.531730 O    432 MOH    -0.6497 ****
2899 HO1    -0.739240    7.493234   32.370358 H    432 MOH     0.4215 ****
2900 HC1    -4.140410   26.503316   22.396617 H    433 MOH     0.0372 ****
2901 C1     -4.721224   26.884620   23.236660 C    433 MOH     0.1166 ****
2902 HC2    -4.423889   27.891768   23.528695 H    433 MOH     0.0372 ****
2903 HC3    -4.513378   26.229381   24.083067 H    433 MOH     0.0372 ****
2904 O1     -6.100514   26.840937   22.951696 O    433 MOH    -0.6497 ****
2905 HO1    -6.505814   26.166103   23.501118 H    433 MOH     0.4215 ****
2906 HC1     0.657371   13.714530   29.042007 H    434 MOH     0.0372 ****
2907 C1      0.640628   12.707381   28.624107 C    434 MOH     0.1166 ****
2908 HC2     1.142345   12.048877   29.331921 H    434 MOH     0.0372 ****
2909 HC3     1.191997   12.678804   27.683655 H    434 MOH     0.0372 ****
2910 O1     -0.702289   12.271781   28.474907 O    434 MOH    -0.6497 ****
2911 HO1    -1.194192   12.532651   29.257674 H    434 MOH     0.4215 ****
2912 HC1    -5.207931   17.505524   28.173680 H    435 MOH     0.0372 ****
2913 C1     -6.271410   17.706382   28.042158 C    435 MOH     0.1166 ****
2914 HC2    -6.853379   16.785374   28.069028 H    435 MOH     0.0372 ****
2915 HC3    -6.436532   18.177092   27.072714 H    435 MOH     0.0372 ****
2916 O1     -6.721743   18.596771   29.021501 O    435 MOH    -0.6497 ****
2917 HO1    -6.611469   19.491243   28.691282 H    435 MOH     0.4215 ****
2918 HC1    -1.494991   20.433072   25.377072 H    436 MOH     0.0372 ****
2919 C1     -1.899136   20.778858   24.426014 C    436 MOH     0.1166 ****
2920 HC2    -2.832134   20.255484   24.213882 H    436 MOH     0.0372 ****
2921 HC3    -1.178026   20.633930   23.622033 H    436 MOH     0.0372 ****
2922 O1     -2.145665   22.144857   24.580163 O    436 MOH    -0.6497 ****
2923 HO1    -1.321209   22.600462   24.768253 H    436 MOH     0.4215 ****
2924 HC1    -5.727546    9.177258   30.580671 H    437 MOH     0.0372 ****
2925 C1     -5.913453    9.763095   29.680524 C    437 MOH     0.1166 ****
2926 HC2    -5.895555    9.139291   28.786741 H    437 MOH     0.0372 ****
2927 HC3    -5.165784   10.548564   29.571630 H    437 MOH     0.0372 ****
2928 O1     -7.155910   10.351381   29.809925 O    437 MOH    -0.6497 ****
2929 HO1    -7.454401   10.462016   28.904121 H    437 MOH     0.4215 ****
2930 HC1    -4.542823   12.752289   31.999834 H    438 MOH     0.0372 ****
2931 C1     -3.788804   11.998662   31.772146 C    438 MOH     0.1166 ****
2932 HC2    -4.274933   11.109089   31.372631 H    438 MOH     0.0372 ****
2933 HC3    -3.299788   11.709214   32.701991 H    438 MOH     0.0372 ****
2934 O1     -2.854651   12.540816   30.827451 O    438 MOH    -0.6497 ****
2935 HO1    -2.638145   13.438554   31.086960 H    438 MOH     0.4215 ****
2936 HC1    -6.297391   21.105049   22.913512 H    439 MOH     0.0372 ****
2937 C1     -6.534682   20.818458   23.938817 C    439 MOH     0.1166 ****
2938 HC2    -5.772579   20.155871   24.348232 H    439 MOH     0.0372 ****
2939 HC3    -7.487887   20.289777   23.919725 H    439 MOH     0.0372 ****
2940 O1     -6.636295   21.944815   24.776739 O    439 MOH    -0.6497 ****
2941 HO1    -5.862646   22.501258   24.657238 H    439 MOH     0.4215 ****
2942 HC1    -8.606214    6.122745   29.265452 H    440 MOH     0.0372 ****
2943 C1     -9.013246    7.123361   29.120496 C    440 MOH     0.1166 ****
2944 HC2   -10.058828    7.077638   28.815025 H    440 MOH     0.0372 ****
2945 HC3    -8.456681    7.581008   28.303787 H    440 MOH     0.0372 ****
2946 O1     -8.858516    7.947206   30.277322 O    440 MOH    -0.6497 ****
2947 HO1    -8.575615    8.827390   30.017107 H    440 MOH     0.4215 ****
2948 HC1    -9.200308   10.528152   31.487889 H    441 MOH     0.0372 ****
2949 C1     -9.111973   11.514072   31.943973 C    441 MOH     0.1166 ****
2950 HC2    -9.712995   11.545915   32.851898 H    441 MOH     0.0372 ****
2951 HC3    -9.464157   12.249327   31.220603 H    441 MOH     0.0372 ****
2952 O1     -7.771943   11.717788   32.251564 O    441 MOH    -0.6497 ****
2953 HO1    -7.286969   11.251160   31.567792 H    441 MOH     0.4215 ****
2954 HC1    -7.236740    5.690818   32.301769 H    442 MOH     0.0372 ****
2955 C1     -6.160559    5.698983   32.132063 C    442 MOH     0.1166 ****
2956 HC2    -5.740248    6.559162   32.651787 H    442 MOH     0.0372 ****
2957 HC3    -5.956754    5.759404   31.062918 H    442 MOH     0.0372 ****
2958 O1     -5.567043    4.554255   32.632695 O    442 MOH    -0.6497 ****
2959 HO1    -6.028923    4.292976   33.431726 H    442 MOH     0.4215 ****
2960 HC1   -10.590567   20.358771   24.900482 H    443 MOH     0.0372 ****
2961 C1    -11.173114   19.485936   25.196053 C    443 MOH     0.1166 ****
2962 HC2   -10.837096   18.571052   24.708856 H    443 MOH     0.0372 ****
2963 HC3   -12.193292   19.665974   24.858763 H    443 MOH     0.0372 ****
2964 O1    -11.180042   19.338967   26.598953 O    443 MOH    -0.6497 ****
2965 HO1   -11.366526   20.200779   26.980083 H    443 MOH     0.4215 ****
2966 HC1   -11.421374   17.344266   29.171407 H    444 MOH     0.0372 ****
2967 C1    -10.389649   17.060533   28.965639 C    444 MOH     0.1166 ****
2968 HC2   -10.118872   16.234647   29.622541 H    444 MOH     0.0372 ****
2969 HC3    -9.741285   17.911322   29.176357 H    444 MOH     0.0372 ****
2970 O1    -10.251663   16.741283   27.603751 O    444 MOH    -0.6497 ****
2971 HO1   -10.548421   17.534101   27.151203 H    444 MOH     0.4215 ****
2972 HC1    -5.927309   16.616767   23.484855 H    445 MOH     0.0372 ****
2973 C1     -5.912875   17.324261   22.655418 C    445 MOH     0.1166 ****
2974 HC2    -6.903608   17.755372   22.513997 H    445 MOH     0.0372 ****
2975 HC3    -5.573971   16.831097   21.744665 H    445 MOH     0.0372 ****
2976 O1     -5.035880   18.375909   22.962303 O    445 MOH    -0.6497 ****
2977 HO1    -4.839581   18.382849   23.902048 H    445 MOH     0.4215 ****
2978 HC1   -14.724395   13.160537   21.268782 H    446 MOH     0.0372 ****
2979 C1    -13.936312   13.194830   20.516420 C    446 MOH     0.1166 ****
2980 HC2   -14.356623   13.586340   19.589403 H    446 MOH     0.0372 ****
2981 HC3   -13.538518   12.197071   20.329744 H    446 MOH     0.0372 ****
2982 O1    -12.929990   14.095017   20.866438 O    446 MOH    -0.6497 ****
2983 HO1   -12.102647   13.630023   20.722895 H    446 MOH     0.4215 ****
2984 HC1   -11.520678   12.540000   18.550663 H    447 MOH     0.0372 ****
2985 C1    -11.090552   11.970085   19.375150 C    447 MOH     0.1166 ****
2986 HC2   -10.315171   11.326277   18.960078 H    447 MOH     0.0372 ****
2987 HC3   -11.835912   11.321378   19.835476 H    447 MOH     0.0372 ****
2988 O1    -10.521285   12.864557   20.314895 O    447 MOH    -0.6497 ****
2989 HO1   -10.106748   12.325261   20.991596 H    447 MOH     0.4215 ****
2990 HC1    -1.173407   21.255284   20.836033 H    448 MOH     0.0372 ****
2991 C1     -0.429780   20.734359   20.233578 C    448 MOH     0.1166 ****
2992 HC2     0.485898   21.323870   20.185494 H    448 MOH     0.0372 ****
2993 HC3    -0.765798   20.613110   19.203323 H    448 MOH     0.0372 ****
2994 O1     -0.091452   19.505532   20.817648 O    448 MOH    -0.6497 ****
2995 HO1    -0.795242   19.234047   21.410910 H    448 MOH     0.4215 ****
2996 HC1    -0.457493   15.578183   25.495866 H    449 MOH     0.0372 ****
2997 C1     -0.496752   14.508573   25.290805 C    449 MOH     0.1166 ****
2998 HC2    -1.275021   14.080320   25.922252 H    449 MOH     0.0372 ****
2999 HC3     0.472041   14.072155   25.534757 H    449 MOH     0.0372 ****
3000 O1     -0.785428   14.216675   23.922554 O    449 MOH    -0.6497 ****
3001 HO1    -0.355879   13.402220   23.650318 H    449 MOH     0.4215 ****
3002 HC1     3.704048   14.258317   23.249388 H    450 MOH     0.0372 ****
3003 C1      3.181546   15.187490   23.477076 C    450 MOH     0.1166 ****
3004 HC2     2.149244   14.974384   23.755676 H    450 MOH     0.0372 ****
3005 HC3     3.221961   15.833747   22.600971 H    450 MOH     0.0372 ****
3006 O1      3.869170   15.750872   24.543393 O    450 MOH    -0.6497 ****
3007 HO1     4.331628   15.035621   24.986042 H    450 MOH     0.4215 ****
3008 HC1    -2.895643    9.472422   32.889375 H    451 MOH     0.0372 ****
3009 C1     -2.644495    8.951905   33.813563 C    451 MOH     0.1166 ****
3010 HC2    -3.311335    8.098258   33.934479 H    451 MOH     0.0372 ****
3011 HC3    -2.767471    9.621841   34.664213 H    451 MOH     0.0372 ****
3012 O1     -1.304466    8.521203   33.716690 O    451 MOH    -0.6497 ****
3013 HO1    -1.114517    7.965578   34.475415 H    451 MOH     0.4215 ****
3014 HC1    -1.422822   16.402845   22.868257 H    452 MOH     0.0372 ****
3015 C1     -2.359862   16.658817   22.375404 C    452 MOH     0.1166 ****
3016 HC2    -3.198174   16.326911   22.988466 H    452 MOH     0.0372 ****
3017 HC3    -2.378337   16.159937   21.406668 H    452 MOH     0.0372 ****
3018 O1     -2.390461   18.042370   22.158322 O    452 MOH    -0.6497 ****
3019 HO1    -3.306716   18.283645   22.006294 H    452 MOH     0.4215 ****
3020 HC1    -4.752401   11.692884   21.160595 H    453 MOH     0.0372 ****
3021 C1     -4.446983   10.712680   20.793606 C    453 MOH     0.1166 ****
3022 HC2    -3.497819   10.792289   20.263983 H    453 MOH     0.0372 ****
3023 HC3    -5.213704   10.320354   20.126804 H    453 MOH     0.0372 ****
3024 O1     -4.293408    9.792080   21.867701 O    453 MOH    -0.6497 ****
3025 HO1    -3.444126    9.358112   21.759514 H    453 MOH     0.4215 ****
3026 HC1     1.088651    9.044578   27.833561 H    454 MOH     0.0372 ****
3027 C1      1.959873    9.547948   27.414247 C    454 MOH     0.1166 ****
3028 HC2     1.661960   10.497125   26.970891 H    454 MOH     0.0372 ****
3029 HC3     2.398659    8.936392   26.625116 H    454 MOH     0.0372 ****
3030 O1      2.928667    9.823107   28.399954 O    454 MOH    -0.6497 ****
3031 HO1     3.358793    8.984974   28.583095 H    454 MOH     0.4215 ****
3032 HC1    -7.466525   15.368344   16.085689 H    455 MOH     0.0372 ****
3033 C1     -6.542764   15.556546   15.537681 C    455 MOH     0.1166 ****
3034 HC2    -5.952135   14.641662   15.575158 H    455 MOH     0.0372 ****
3035 HC3    -6.020262   16.379983   16.024878 H    455 MOH     0.0372 ****
3036 O1     -6.815851   15.908864   14.183572 O    455 MOH    -0.6497 ****
3037 HO1    -6.034119   16.330993   13.820119 H    455 MOH     0.4215 ****
3038 HC1    -3.358678   24.624149   26.106806 H    456 MOH     0.0372 ****
3039 C1     -4.373659   24.240804   26.002862 C    456 MOH     0.1166 ****
3040 HC2    -5.094770   25.058117   26.024075 H    456 MOH     0.0372 ****
3041 HC3    -4.608641   23.545965   26.808963 H    456 MOH     0.0372 ****
3042 O1     -4.501254   23.528819   24.820579 O    456 MOH    -0.6497 ****
3043 HO1    -3.780721   22.895626   24.788759 H    456 MOH     0.4215 ****
3044 HC1    -9.879849   10.630214   26.996347 H    457 MOH     0.0372 ****
3045 C1     -9.023061   10.372201   26.372679 C    457 MOH     0.1166 ****
3046 HC2    -8.837154   11.165428   25.649308 H    457 MOH     0.0372 ****
3047 HC3    -9.269012    9.468339   25.815478 H    457 MOH     0.0372 ****
3048 O1     -7.859700   10.181549   27.173831 O    457 MOH    -0.6497 ****
3049 HO1    -7.163416    9.833722   26.612388 H    457 MOH     0.4215 ****
3050 HC1    -3.825177   10.290143   26.179639 H    458 MOH     0.0372 ****
3051 C1     -4.323430    9.514472   25.599811 C    458 MOH     0.1166 ****
3052 HC2    -3.596546    8.769010   25.277370 H    458 MOH     0.0372 ****
3053 HC3    -4.785888    9.988448   24.733605 H    458 MOH     0.0372 ****
3054 O1     -5.298575    8.883728   26.396720 O    458 MOH    -0.6497 ****
3055 HO1    -4.826879    8.514671   27.146253 H    458 MOH     0.4215 ****
3056 HC1    -4.500676   21.988906   21.886086 H    459 MOH     0.0372 ****
3057 C1     -3.907738   21.650468   21.036851 C    459 MOH     0.1166 ****
3058 HC2    -3.540543   20.654751   21.285045 H    459 MOH     0.0372 ****
3059 HC3    -3.060765   22.320404   20.884823 H    459 MOH     0.0372 ****
3060 O1     -4.711987   21.599437   19.866589 O    459 MOH    -0.6497 ****
3061 HO1    -4.304955   20.949098   19.288883 H    459 MOH     0.4215 ****
3062 HC1    -8.744201   22.309789   27.548597 H    460 MOH     0.0372 ****
3063 C1     -8.562913   21.271614   27.827904 C    460 MOH     0.1166 ****
3064 HC2    -9.222247   20.634338   27.238884 H    460 MOH     0.0372 ****
3065 HC3    -8.787502   21.116888   28.883615 H    460 MOH     0.0372 ****
3066 O1     -7.232698   20.876021   27.586781 O    460 MOH    -0.6497 ****
3067 HO1    -7.053142   20.984207   26.649864 H    460 MOH     0.4215 ****
3068 HC1    -5.486213   13.922737   23.854671 H    461 MOH     0.0372 ****
3069 C1     -4.558989   13.745965   24.398437 C    461 MOH     0.1166 ****
3070 HC2    -4.624807   12.821283   24.971900 H    461 MOH     0.0372 ****
3071 HC3    -4.335554   14.582466   25.060996 H    461 MOH     0.0372 ****
3072 O1     -3.555554   13.643903   23.467884 O    461 MOH    -0.6497 ****
3073 HO1    -2.745532   13.984790   23.854671 H    461 MOH     0.4215 ****
3074 HC1    -7.583150   14.066848   18.581776 H    462 MOH     0.0372 ****
3075 C1     -7.303135   13.158496   19.115642 C    462 MOH     0.1166 ****
3076 HC2    -6.494844   12.662882   18.578241 H    462 MOH     0.0372 ****
3077 HC3    -8.133942   12.452634   19.138976 H    462 MOH     0.0372 ****
3078 O1     -6.865503   13.419775   20.435103 O    462 MOH    -0.6497 ****
3079 HO1    -7.213068   12.715138   20.986646 H    462 MOH     0.4215 ****
3080 HC1     3.360525   16.365286   28.007510 H    463 MOH     0.0372 ****
3081 C1      2.350739   16.044403   27.751537 C    463 MOH     0.1166 ****
3082 HC2     1.653300   16.475105   28.470665 H    463 MOH     0.0372 ****
3083 HC3     2.269333   14.958054   27.786185 H    463 MOH     0.0372 ****
3084 O1      1.995669   16.503682   26.479452 O    463 MOH    -0.6497 ****
3085 HO1     2.594381   16.096250   25.850127 H    463 MOH     0.4215 ****
3086 HC1    -3.149100    3.579358   30.422279 H    464 MOH     0.0372 ****
3087 C1     -2.567708    4.336658   30.949074 C    464 MOH     0.1166 ****
3088 HC2    -1.514044    4.092526   30.811895 H    464 MOH     0.0372 ****
3089 HC3    -2.797493    4.347273   32.013977 H    464 MOH     0.0372 ****
3090 O1     -2.695880    5.596921   30.396823 O    464 MOH    -0.6497 ****
3091 HO1    -1.897404    6.073347   30.637947 H    464 MOH     0.4215 ****
3092 HC1    -2.928552    3.256842   25.759617 H    465 MOH     0.0372 ****
3093 C1     -2.961461    4.341966   25.660622 C    465 MOH     0.1166 ****
3094 HC2    -2.516324    4.811043   26.538142 H    465 MOH     0.0372 ****
3095 HC3    -3.998959    4.667748   25.585669 H    465 MOH     0.0372 ****
3096 O1     -2.275569    4.719187   24.495310 O    465 MOH    -0.6497 ****
3097 HO1    -2.173955    5.672447   24.535615 H    465 MOH     0.4215 ****
3098 HC1     5.504804   12.073780   26.942607 H    466 MOH     0.0372 ****
3099 C1      4.598941   12.398337   26.431369 C    466 MOH     0.1166 ****
3100 HC2     3.713286   12.005603   26.930586 H    466 MOH     0.0372 ****
3101 HC3     4.606447   12.050102   25.398286 H    466 MOH     0.0372 ****
3102 O1      4.505988   13.790464   26.445511 O    466 MOH    -0.6497 ****
3103 HO1     4.776188   14.075830   27.321616 H    466 MOH     0.4215 ****
3104 HC1    -7.474608   15.600637   24.049833 H    467 MOH     0.0372 ****
3105 C1     -8.105074   15.287102   24.881390 C    467 MOH     0.1166 ****
3106 HC2    -9.081374   14.974384   24.510866 H    467 MOH     0.0372 ****
3107 HC3    -8.275393   16.114213   25.571527 H    467 MOH     0.0372 ****
3108 O1     -7.502898   14.233005   25.577183 O    467 MOH    -0.6497 ****
3109 HO1    -8.153572   13.878646   26.186710 H    467 MOH     0.4215 ****
3110 HC1   -15.474373   10.265240   27.246663 H    468 MOH     0.0372 ****
3111 C1    -14.830628   11.049485   26.849976 C    468 MOH     0.1166 ****
3112 HC2   -14.796564   11.850877   27.587488 H    468 MOH     0.0372 ****
3113 HC3   -15.229577   11.489577   25.934979 H    468 MOH     0.0372 ****
3114 O1    -13.518888   10.584899   26.619459 O    468 MOH    -0.6497 ****
3115 HO1   -13.076637   11.372001   26.294190 H    468 MOH     0.4215 ****
3116 HC1    -8.982069   17.300991   22.089026 H    469 MOH     0.0372 ****
3117 C1     -9.115437   16.278329   21.736179 C    469 MOH     0.1166 ****
3118 HC2   -10.114253   16.200762   21.307673 H    469 MOH     0.0372 ****
3119 HC3    -9.042114   15.561445   22.553595 H    469 MOH     0.0372 ****
3120 O1     -8.195141   16.001129   20.724310 O    469 MOH    -0.6497 ****
3121 HO1    -8.079093   15.053176   20.632386 H    469 MOH     0.4215 ****
3122 HC1    -6.795066    8.026406   21.046750 H    470 MOH     0.0372 ****
3123 C1     -7.531765    8.372193   21.771535 C    470 MOH     0.1166 ****
3124 HC2    -7.802543    7.564269   22.452479 H    470 MOH     0.0372 ****
3125 HC3    -8.440515    8.671847   21.251104 H    470 MOH     0.0372 ****
3126 O1     -7.091825    9.453643   22.565616 O    470 MOH    -0.6497 ****
3127 HO1    -6.144393    9.385057   22.701380 H    470 MOH     0.4215 ****
3128 HC1    -5.846480   24.581691   21.398889 H    471 MOH     0.0372 ****
3129 C1     -6.694030   23.917063   21.568595 C    471 MOH     0.1166 ****
3130 HC2    -7.559478   24.560870   21.724866 H    471 MOH     0.0372 ****
3131 HC3    -6.461358   23.315305   22.446822 H    471 MOH     0.0372 ****
3132 O1     -6.827398   23.215284   20.353079 O    471 MOH    -0.6497 ****
3133 HO1    -5.981580   22.809485   20.148018 H    471 MOH     0.4215 ****
3134 HC1    -7.957850    5.775734   26.808964 H    472 MOH     0.0372 ****
3135 C1     -6.922661    6.079879   26.652693 C    472 MOH     0.1166 ****
3136 HC2    -6.333764    5.177242   26.485109 H    472 MOH     0.0372 ****
3137 HC3    -6.549693    6.636729   27.511121 H    472 MOH     0.0372 ****
3138 O1     -6.924970    6.811460   25.476067 O    472 MOH    -0.6497 ****
3139 HO1    -6.287576    7.520587   25.585669 H    472 MOH     0.4215 ****
3140 HC1    -9.816918   25.587615   24.648752 H    473 MOH     0.0372 ****
3141 C1     -8.945696   24.932376   24.629660 C    473 MOH     0.1166 ****
3142 HC2    -8.946274   24.360829   23.701936 H    473 MOH     0.0372 ****
3143 HC3    -8.973409   24.223249   25.457682 H    473 MOH     0.0372 ****
3144 O1     -7.767324   25.717030   24.703199 O    473 MOH    -0.6497 ****
3145 HO1    -7.796769   26.227748   25.515665 H    473 MOH     0.4215 ****
3146 HC1   -14.002130   18.822533   27.173830 H    474 MOH     0.0372 ****
3147 C1    -13.734817   17.817834   27.502635 C    474 MOH     0.1166 ****
3148 HC2   -12.790272   17.528385   27.042309 H    474 MOH     0.0372 ****
3149 HC3   -14.497496   17.104216   27.192922 H    474 MOH     0.0372 ****
3150 O1    -13.567385   17.825590   28.931698 O    474 MOH    -0.6497 ****
3151 HO1   -14.395883   18.013384   29.378589 H    474 MOH     0.4215 ****
3152 HC1     3.931524   19.959096   24.604205 H    475 MOH     0.0372 ****
3153 C1      3.484655   20.373060   23.700522 C    475 MOH     0.1166 ****
3154 HC2     2.456972   20.691901   23.872349 H    475 MOH     0.0372 ****
3155 HC3     3.515255   19.600654   22.931190 H    475 MOH     0.0372 ****
3156 O1      4.295255   21.437363   23.312321 O    475 MOH    -0.6497 ****
3157 HO1     4.477120   21.983599   24.080238 H    475 MOH     0.4215 ****
3158 HC1    -2.842526   17.706790   19.198373 H    476 MOH     0.0372 ****
3159 C1     -3.766864   18.221999   18.936744 C    476 MOH     0.1166 ****
3160 HC2    -4.479892   18.175051   19.760523 H    476 MOH     0.0372 ****
3161 HC3    -4.202764   17.775784   18.043668 H    476 MOH     0.0372 ****
3162 O1     -3.528996   19.571260   18.657437 O    476 MOH    -0.6497 ****
3163 HO1    -3.024392   19.601470   17.841435 H    476 MOH     0.4215 ****
3164 HC1   -12.583003    7.487110   19.737896 H    477 MOH     0.0372 ****
3165 C1    -12.069161    7.796154   20.647942 C    477 MOH     0.1166 ****
3166 HC2   -10.986052    7.770027   20.531977 H    477 MOH     0.0372 ****
3167 HC3   -12.372270    7.156838   21.478085 H    477 MOH     0.0372 ****
3168 O1    -12.508525    9.053559   20.930785 O    477 MOH    -0.6497 ****
3169 HO1   -12.840501    9.415675   20.105591 H    477 MOH     0.4215 ****
3170 HC1   -10.731441   10.695942   23.471419 H    478 MOH     0.0372 ****
3171 C1    -11.613632   11.279329   23.732342 C    478 MOH     0.1166 ****
3172 HC2   -11.309368   12.277904   24.043469 H    478 MOH     0.0372 ****
3173 HC3   -12.148836   10.789431   24.545515 H    478 MOH     0.0372 ****
3174 O1    -12.434624   11.334442   22.564909 O    478 MOH    -0.6497 ****
3175 HO1   -12.525268   10.445686   22.212062 H    478 MOH     0.4215 ****
3176 HC1    -3.194710    1.703457   28.922506 H    479 MOH     0.0372 ****
3177 C1     -2.356975    1.931668   28.262775 C    479 MOH     0.1166 ****
3178 HC2    -1.999595    2.933101   28.498242 H    479 MOH     0.0372 ****
3179 HC3    -2.707427    1.886760   27.231813 H    479 MOH     0.0372 ****
3180 O1     -1.276175    0.989839   28.467129 O    479 MOH    -0.6497 ****
3181 HO1    -0.443059    1.378083   28.189236 H    479 MOH     0.4215 ****
3182 HC1    -9.001122   12.558779   28.537840 H    480 MOH     0.0372 ****
3183 C1     -9.312891   13.602262   28.502484 C    480 MOH     0.1166 ****
3184 HC2    -8.506910   14.259541   28.830582 H    480 MOH     0.0372 ****
3185 HC3   -10.155822   13.725553   29.181307 H    480 MOH     0.0372 ****
3186 O1     -9.766111   13.948456   27.208479 O    480 MOH    -0.6497 ****
3187 HO1    -9.977421   14.884161   27.238177 H    480 MOH     0.4215 ****
3188 HC1   -13.275823   11.729627   29.354548 H    481 MOH     0.0372 ****
3189 C1    -12.504483   11.436505   30.067312 C    481 MOH     0.1166 ****
3190 HC2   -11.606704   11.180125   29.504455 H    481 MOH     0.0372 ****
3191 HC3   -12.834728   10.548156   30.606127 H    481 MOH     0.0372 ****
3192 O1    -12.244098   12.513872   30.975944 O    481 MOH    -0.6497 ****
3193 HO1   -12.910361   12.488969   31.666787 H    481 MOH     0.4215 ****
3194 HC1    -3.970092   16.375492   26.453996 H    482 MOH     0.0372 ****
3195 C1     -3.188359   17.048694   26.102564 C    482 MOH     0.1166 ****
3196 HC2    -2.628907   16.613909   25.274542 H    482 MOH     0.0372 ****
3197 HC3    -2.503045   17.253634   26.924222 H    482 MOH     0.0372 ****
3198 O1     -3.762246   18.248127   25.657087 O    482 MOH    -0.6497 ****
3199 HO1    -3.567101   18.891527   26.342980 H    482 MOH     0.4215 ****
3200 HC1     7.158797   23.709918   21.910128 H    483 MOH     0.0372 ****
3201 C1      6.971735   22.723998   22.335099 C    483 MOH     0.1166 ****
3202 HC2     6.579714   22.818712   23.347676 H    483 MOH     0.0372 ****
3203 HC3     7.928982   22.207564   22.403688 H    483 MOH     0.0372 ****
3204 O1      6.130536   21.920157   21.485864 O    483 MOH    -0.6497 ****
3205 HO1     5.414622   21.573963   22.023265 H    483 MOH     0.4215 ****
3206 HC1    -3.780836   25.447831   19.045638 H    484 MOH     0.0372 ****
3207 C1     -3.368031   26.455387   19.008869 C    484 MOH     0.1166 ****
3208 HC2    -3.453479   26.926098   19.988211 H    484 MOH     0.0372 ****
3209 HC3    -3.944804   27.043265   18.294691 H    484 MOH     0.0372 ****
3210 O1     -2.028578   26.399866   18.577533 O    484 MOH    -0.6497 ****
3211 HO1    -1.995092   25.739320   17.881740 H    484 MOH     0.4215 ****
3212 HC1    -3.126121   29.562973   21.268782 H    485 MOH     0.0372 ****
3213 C1     -2.338038   29.597266   20.516420 C    485 MOH     0.1166 ****
3214 HC2    -2.758349   29.988776   19.589403 H    485 MOH     0.0372 ****
3215 HC3    -1.940244   28.599508   20.329744 H    485 MOH     0.0372 ****
3216 O1     -1.331716   30.497454   20.866438 O    485 MOH    -0.6497 ****
3217 HO1    -0.504373   30.032459   20.722895 H    485 MOH     0.4215 ****
3218 HC1     0.077596   28.942436   18.550663 H    486 MOH     0.0372 ****
3219 C1      0.507722   28.372521   19.375150 C    486 MOH     0.1166 ****
3220 HC2     1.283103   27.728714   18.960078 H    486 MOH     0.0372 ****
3221 HC3    -0.237638   27.723815   19.835476 H    486 MOH     0.0372 ****
3222 O1      1.076989   29.266993   20.314895 O    486 MOH    -0.6497 ****
3223 HO1     1.491526   28.727697   20.991596 H    486 MOH     0.4215 ****
3224 HC1     4.131749   31.770780   16.085689 H    487 MOH     0.0372 ****
3225 C1      5.055510   31.958983   15.537681 C    487 MOH     0.1166 ****
3226 HC2     5.646139   31.044098   15.575158 H    487 MOH     0.0372 ****
3227 HC3     5.578012   32.782419   16.024878 H    487 MOH     0.0372 ****
3228 O1      4.782423   32.311301   14.183572 O    487 MOH    -0.6497 ****
3229 HO1     5.564155   32.733430   13.820119 H    487 MOH     0.4215 ****
3230 HC1    -0.984729   23.889547   19.737896 H    488 MOH     0.0372 ****
3231 C1     -0.470887   24.198591   20.647942 C    488 MOH     0.1166 ****
3232 HC2     0.612222   24.172463   20.531977 H    488 MOH     0.0372 ****
3233 HC3    -0.773996   23.559274   21.478085 H    488 MOH     0.0372 ****
3234 O1     -0.910251   25.455996   20.930785 O    488 MOH    -0.6497 ****
3235 HO1    -1.242227   25.818112   20.105591 H    488 MOH     0.4215 ****
3236 HC1   -22.266783  -18.292136   12.520598 H    489 MOH     0.0372 ****
3237 C1    -23.303127  -18.153332   12.827483 C    489 MOH     0.1166 ****
3238 HC2   -23.866621  -17.789174   11.969055 H    489 MOH     0.0372 ****
3239 HC3   -23.372987  -17.403380   13.615907 H    489 MOH     0.0372 ****
3240 O1    -23.828516  -19.396039   13.244676 O    489 MOH    -0.6497 ****
3241 HO1   -24.591196  -19.243763   13.806825 H    489 MOH     0.4215 ****
3242 HC1    -9.400533  -22.844921   15.337712 H    490 MOH     0.0372 ****
3243 C1     -8.966943  -22.651820   16.318469 C    490 MOH     0.1166 ****
3244 HC2    -8.681154  -21.600988   16.369381 H    490 MOH     0.0372 ****
3245 HC3    -8.078978  -23.271132   16.445041 H    490 MOH     0.0372 ****
3246 O1     -9.921303  -22.966579   17.326096 O    490 MOH    -0.6497 ****
3247 HO1    -9.720385  -23.858193   17.618838 H    490 MOH     0.4215 ****
3248 HC1    -5.330791  -24.456277   10.722426 H    491 MOH     0.0372 ****
3249 C1     -5.525358  -23.714898   11.497415 C    491 MOH     0.1166 ****
3250 HC2    -6.589414  -23.672849   11.730053 H    491 MOH     0.0372 ****
3251 HC3    -5.223981  -22.726529   11.150226 H    491 MOH     0.0372 ****
3252 O1     -4.855631  -24.045171   12.708689 O    491 MOH    -0.6497 ****
3253 HO1    -5.073292  -24.939643   12.980925 H    491 MOH     0.4215 ****
3254 HC1   -21.217161  -19.743459   17.189624 H    492 MOH     0.0372 ****
3255 C1    -20.613252  -19.191915   17.910166 C    492 MOH     0.1166 ****
3256 HC2   -19.801498  -19.827150   18.263720 H    492 MOH     0.0372 ****
3257 HC3   -21.261617  -18.906142   18.738895 H    492 MOH     0.0372 ****
3258 O1    -20.108648  -18.068008   17.254678 O    492 MOH    -0.6497 ****
3259 HO1   -19.295739  -17.806321   17.693792 H    492 MOH     0.4215 ****
3260 HC1   -14.512969  -26.150916    4.728282 H    493 MOH     0.0372 ****
3261 C1    -15.305094  -26.683272    5.254369 C    493 MOH     0.1166 ****
3262 HC2   -15.277958  -26.425667    6.312908 H    493 MOH     0.0372 ****
3263 HC3   -15.139394  -27.750841    5.112241 H    493 MOH     0.0372 ****
3264 O1    -16.533695  -26.267675    4.698583 O    493 MOH    -0.6497 ****
3265 HO1   -17.228248  -26.626525    5.256490 H    493 MOH     0.4215 ****
3266 HC1   -13.816685  -18.259885    3.608932 H    494 MOH     0.0372 ****
3267 C1    -13.279172  -17.917364    2.724341 C    494 MOH     0.1166 ****
3268 HC2   -13.607107  -18.491361    1.857428 H    494 MOH     0.0372 ****
3269 HC3   -12.219734  -18.101892    2.902532 H    494 MOH     0.0372 ****
3270 O1    -13.539557  -16.536669    2.455640 O    494 MOH    -0.6497 ****
3271 HO1   -13.280326  -16.331728    1.554786 H    494 MOH     0.4215 ****
3272 HC1   -10.447846  -20.092103   12.251191 H    495 MOH     0.0372 ****
3273 C1    -10.399349  -21.179676   12.200279 C    495 MOH     0.1166 ****
3274 HC2   -10.777513  -21.534444   11.242149 H    495 MOH     0.0372 ****
3275 HC3   -11.006144  -21.626300   12.987996 H    495 MOH     0.0372 ****
3276 O1     -9.062783  -21.614052   12.273818 O    495 MOH    -0.6497 ****
3277 HO1    -9.095114  -22.573436   12.295031 H    495 MOH     0.4215 ****
3278 HC1   -19.358093  -21.116806    6.677775 H    496 MOH     0.0372 ****
3279 C1    -19.312482  -21.571595    5.687825 C    496 MOH     0.1166 ****
3280 HC2   -18.395072  -22.150491    5.578931 H    496 MOH     0.0372 ****
3281 HC3   -19.322874  -20.793882    4.924857 H    496 MOH     0.0372 ****
3282 O1    -20.415798  -22.408095    5.470744 O    496 MOH    -0.6497 ****
3283 HO1   -20.156568  -23.295627    5.728131 H    496 MOH     0.4215 ****
3284 HC1   -11.250940  -25.673674    5.173052 H    497 MOH     0.0372 ****
3285 C1    -11.052332  -24.713065    5.647521 C    497 MOH     0.1166 ****
3286 HC2    -9.987698  -24.495877    5.564082 H    497 MOH     0.0372 ****
3287 HC3   -11.281540  -24.748175    6.712423 H    497 MOH     0.0372 ****
3288 O1    -11.845611  -23.717348    4.996275 O    497 MOH    -0.6497 ****
3289 HO1   -11.798268  -22.941268    5.559839 H    497 MOH     0.4215 ****
3290 HC1   -12.409682  -31.140935   10.185025 H    498 MOH     0.0372 ****
3291 C1    -12.362340  -30.417519   10.999612 C    498 MOH     0.1166 ****
3292 HC2   -13.155619  -29.690020   10.828492 H    498 MOH     0.0372 ****
3293 HC3   -11.401629  -29.903942   10.952943 H    498 MOH     0.0372 ****
3294 O1    -12.547669  -31.059285   12.293617 O    498 MOH    -0.6497 ****
3295 HO1   -12.739349  -30.383634   12.949105 H    498 MOH     0.4215 ****
3296 HC1    -5.651797  -22.426467   14.504033 H    499 MOH     0.0372 ****
3297 C1     -5.569236  -21.486679   15.049919 C    499 MOH     0.1166 ****
3298 HC2    -6.396002  -20.831032   14.776976 H    499 MOH     0.0372 ****
3299 HC3    -4.611990  -21.024542   14.805260 H    499 MOH     0.0372 ****
3300 O1     -5.610228  -21.844713   16.391301 O    499 MOH    -0.6497 ****
3301 HO1    -5.386216  -21.101701   16.955572 H    499 MOH     0.4215 ****
3302 HC1   -17.744399  -17.802238   14.247353 H    500 MOH     0.0372 ****
3303 C1    -18.410084  -16.943284   14.332206 C    500 MOH     0.1166 ****
3304 HC2   -19.452201  -17.263350   14.325135 H    500 MOH     0.0372 ****
3305 HC3   -18.274984  -16.318664   13.449737 H    500 MOH     0.0372 ****
3306 O1    -18.184340  -16.146383   15.535702 O    500 MOH    -0.6497 ****
3307 HO1   -18.257086  -16.713440   16.305741 H    500 MOH     0.4215 ****
3308 HC1   -25.420848  -25.188675    9.149820 H    501 MOH     0.0372 ****
3309 C1    -25.961248  -24.319106    8.776468 C    501 MOH     0.1166 ****
3310 HC2   -26.404653  -24.648562    7.836723 H    501 MOH     0.0372 ****
3311 HC3   -25.238405  -23.516081    8.630097 H    501 MOH     0.0372 ****
3312 O1    -26.952558  -23.980668    9.769953 O    501 MOH    -0.6497 ****
3313 HO1   -27.588221  -24.694694    9.852684 H    501 MOH     0.4215 ****
3314 HC1   -10.864116  -33.803938   10.789601 H    502 MOH     0.0372 ****
3315 C1    -11.544234  -34.372628   11.423876 C    502 MOH     0.1166 ****
3316 HC2   -11.189741  -34.335477   12.454130 H    502 MOH     0.0372 ****
3317 HC3   -11.599082  -35.409170   11.092243 H    502 MOH     0.0372 ****
3318 O1    -12.776877  -33.749641   11.341851 O    502 MOH    -0.6497 ****
3319 HO1   -12.674686  -32.856802   11.677727 H    502 MOH     0.4215 ****
3320 HC1   -20.803778  -13.548291   16.981028 H    503 MOH     0.0372 ****
3321 C1    -21.258153  -13.250270   16.036333 C    503 MOH     0.1166 ****
3322 HC2   -22.338952  -13.384992   16.084416 H    503 MOH     0.0372 ****
3323 HC3   -20.835532  -13.874890   15.248616 H    503 MOH     0.0372 ****
3324 O1    -20.976406  -11.892844   15.776825 O    503 MOH    -0.6497 ****
3325 HO1   -21.246028  -11.698518   14.875971 H    503 MOH     0.4215 ****
3326 HC1   -19.762815  -10.634623   20.104318 H    504 MOH     0.0372 ****
3327 C1    -20.104607  -11.304150   19.315187 C    504 MOH     0.1166 ****
3328 HC2   -20.602860  -12.180251   19.730966 H    504 MOH     0.0372 ****
3329 HC3   -19.232230  -11.622176   18.744552 H    504 MOH     0.0372 ****
3330 O1    -20.885762  -10.574202   18.393120 O    504 MOH    -0.6497 ****
3331 HO1   -20.858626  -11.061242   17.566512 H    504 MOH     0.4215 ****
3332 HC1   -16.996153  -27.340551   15.773290 H    505 MOH     0.0372 ****
3333 C1    -17.136449  -27.494869   14.704144 C    505 MOH     0.1166 ****
3334 HC2   -17.332748  -26.540385   14.214826 H    505 MOH     0.0372 ****
3335 HC3   -17.970720  -28.173786   14.528075 H    505 MOH     0.0372 ****
3336 O1    -15.960964  -28.049270   14.152601 O    505 MOH    -0.6497 ****
3337 HO1   -15.314332  -28.150108   14.854758 H    505 MOH     0.4215 ****
3338 HC1   -14.232954  -19.304184   17.063759 H    506 MOH     0.0372 ****
3339 C1    -13.750290  -20.270099   16.916681 C    506 MOH     0.1166 ****
3340 HC2   -14.523362  -21.024134   16.768896 H    506 MOH     0.0372 ****
3341 HC3   -13.185641  -20.512599   17.816121 H    506 MOH     0.0372 ****
3342 O1    -12.842118  -20.242338   15.793796 O    506 MOH    -0.6497 ****
3343 HO1   -12.130822  -19.638131   16.022898 H    506 MOH     0.4215 ****
3344 HC1   -19.539958  -27.546717    8.404530 H    507 MOH     0.0372 ****
3345 C1    -19.701039  -28.559581    8.772932 C    507 MOH     0.1166 ****
3346 HC2   -20.452171  -28.514673    9.560649 H    507 MOH     0.0372 ****
3347 HC3   -18.776124  -28.960072    9.188004 H    507 MOH     0.0372 ****
3348 O1    -20.152527  -29.406288    7.716515 O    507 MOH    -0.6497 ****
3349 HO1   -19.747804  -30.264426    7.866422 H    507 MOH     0.4215 ****
3350 HC1   -15.738684  -14.502776    8.191691 H    508 MOH     0.0372 ****
3351 C1    -16.319498  -14.121472    9.031733 C    508 MOH     0.1166 ****
3352 HC2   -16.022163  -13.114323    9.323769 H    508 MOH     0.0372 ****
3353 HC3   -16.111652  -14.776710    9.878140 H    508 MOH     0.0372 ****
3354 O1    -17.698788  -14.165154    8.746769 O    508 MOH    -0.6497 ****
3355 HO1   -18.104088  -14.839989    9.296191 H    508 MOH     0.4215 ****
3356 HC1   -10.940903  -27.291561   14.837080 H    509 MOH     0.0372 ****
3357 C1    -10.957646  -28.298710   14.419180 C    509 MOH     0.1166 ****
3358 HC2   -10.455929  -28.957214   15.126994 H    509 MOH     0.0372 ****
3359 HC3   -10.406277  -28.327287   13.478728 H    509 MOH     0.0372 ****
3360 O1    -12.300563  -28.734311   14.269981 O    509 MOH    -0.6497 ****
3361 HO1   -12.792466  -28.473440   15.052748 H    509 MOH     0.4215 ****
3362 HC1   -16.806205  -23.500568   13.968753 H    510 MOH     0.0372 ****
3363 C1    -17.869684  -23.299710   13.837231 C    510 MOH     0.1166 ****
3364 HC2   -18.451653  -24.220718   13.864101 H    510 MOH     0.0372 ****
3365 HC3   -18.034806  -22.828999   12.867788 H    510 MOH     0.0372 ****
3366 O1    -18.320017  -22.409320   14.816574 O    510 MOH    -0.6497 ****
3367 HO1   -18.209743  -21.514848   14.486355 H    510 MOH     0.4215 ****
3368 HC1   -13.093265  -20.573019   11.172146 H    511 MOH     0.0372 ****
3369 C1    -13.497410  -20.227233   10.221087 C    511 MOH     0.1166 ****
3370 HC2   -14.430408  -20.750607   10.008955 H    511 MOH     0.0372 ****
3371 HC3   -12.776300  -20.372161    9.417107 H    511 MOH     0.0372 ****
3372 O1    -13.743939  -18.861234   10.375236 O    511 MOH    -0.6497 ****
3373 HO1   -12.919483  -18.405629   10.563327 H    511 MOH     0.4215 ****
3374 HC1   -17.895664  -19.901043    8.708586 H    512 MOH     0.0372 ****
3375 C1    -18.132955  -20.187633    9.733890 C    512 MOH     0.1166 ****
3376 HC2   -17.370853  -20.850220   10.143305 H    512 MOH     0.0372 ****
3377 HC3   -19.086161  -20.716314    9.714799 H    512 MOH     0.0372 ****
3378 O1    -18.234569  -19.061276   10.571812 O    512 MOH    -0.6497 ****
3379 HO1   -17.460920  -18.504833   10.452311 H    512 MOH     0.4215 ****
3380 HC1   -10.853723  -18.685687    9.505495 H    513 MOH     0.0372 ****
3381 C1    -10.433412  -17.802238    9.986328 C    513 MOH     0.1166 ****
3382 HC2   -10.179956  -17.060451    9.229016 H    513 MOH     0.0372 ****
3383 HC3    -9.546602  -18.085154   10.552720 H    513 MOH     0.0372 ****
3384 O1    -11.438579  -17.305808   10.809400 O    513 MOH    -0.6497 ****
3385 HO1   -11.082354  -17.109441   11.678434 H    513 MOH     0.4215 ****
3386 HC1   -16.502518  -16.377860   22.081389 H    514 MOH     0.0372 ****
3387 C1    -16.545242  -15.503800   21.431558 C    514 MOH     0.1166 ****
3388 HC2   -15.744458  -14.803654   21.669853 H    514 MOH     0.0372 ****
3389 HC3   -17.484591  -14.987774   21.626719 H    514 MOH     0.0372 ****
3390 O1    -16.544665  -15.858160   20.039972 O    514 MOH    -0.6497 ****
3391 HO1   -16.435546  -15.065750   19.508935 H    514 MOH     0.4215 ****
3392 HC1   -22.188841  -20.647321   10.695556 H    515 MOH     0.0372 ****
3393 C1    -22.771388  -21.520155   10.991126 C    515 MOH     0.1166 ****
3394 HC2   -22.435370  -22.435040   10.503930 H    515 MOH     0.0372 ****
3395 HC3   -23.791565  -21.340118   10.653836 H    515 MOH     0.0372 ****
3396 O1    -22.778316  -21.667125   12.394026 O    515 MOH    -0.6497 ****
3397 HO1   -22.964800  -20.805313   12.775157 H    515 MOH     0.4215 ****
3398 HC1   -23.019648  -23.661826   14.966481 H    516 MOH     0.0372 ****
3399 C1    -21.987923  -23.945558   14.760713 C    516 MOH     0.1166 ****
3400 HC2   -21.717146  -24.771445   15.417615 H    516 MOH     0.0372 ****
3401 HC3   -21.339559  -23.094769   14.971430 H    516 MOH     0.0372 ****
3402 O1    -21.849937  -24.264809   13.398825 O    516 MOH    -0.6497 ****
3403 HO1   -22.146695  -23.471990   12.946277 H    516 MOH     0.4215 ****
3404 HC1   -17.525583  -24.389324    9.279928 H    517 MOH     0.0372 ****
3405 C1    -17.511149  -23.681830    8.450492 C    517 MOH     0.1166 ****
3406 HC2   -18.501882  -23.250720    8.309070 H    517 MOH     0.0372 ****
3407 HC3   -17.172245  -24.174994    7.539738 H    517 MOH     0.0372 ****
3408 O1    -16.634154  -22.630182    8.757376 O    517 MOH    -0.6497 ****
3409 HO1   -16.437855  -22.623242    9.697121 H    517 MOH     0.4215 ****
3410 HC1   -23.729212  -19.907166   16.163612 H    518 MOH     0.0372 ****
3411 C1    -23.968812  -20.539951   17.017797 C    518 MOH     0.1166 ****
3412 HC2   -25.014393  -20.415435   17.298519 H    518 MOH     0.0372 ****
3413 HC3   -23.336614  -20.232540   17.851476 H    518 MOH     0.0372 ****
3414 O1    -23.666858  -21.890028   16.701721 O    518 MOH    -0.6497 ****
3415 HO1   -24.129315  -22.163146   15.906226 H    518 MOH     0.4215 ****
3416 HC1   -12.771681  -19.750807    6.631106 H    519 MOH     0.0372 ****
3417 C1    -12.028054  -20.271732    6.028651 C    519 MOH     0.1166 ****
3418 HC2   -11.112376  -19.682222    5.980568 H    519 MOH     0.0372 ****
3419 HC3   -12.364072  -20.392982    4.998396 H    519 MOH     0.0372 ****
3420 O1    -11.689726  -21.500559    6.612721 O    519 MOH    -0.6497 ****
3421 HO1   -12.393516  -21.772045    7.205984 H    519 MOH     0.4215 ****
3422 HC1   -12.055767  -25.427908   11.290940 H    520 MOH     0.0372 ****
3423 C1    -12.095026  -26.497519   11.085879 C    520 MOH     0.1166 ****
3424 HC2   -12.873295  -26.925771   11.717325 H    520 MOH     0.0372 ****
3425 HC3   -11.126233  -26.933936   11.329831 H    520 MOH     0.0372 ****
3426 O1    -12.383701  -26.789416    9.717627 O    520 MOH    -0.6497 ****
3427 HO1   -11.954153  -27.603871    9.445391 H    520 MOH     0.4215 ****
3428 HC1    -7.894226  -26.747775    9.044462 H    521 MOH     0.0372 ****
3429 C1     -8.416728  -25.818602    9.272150 C    521 MOH     0.1166 ****
3430 HC2    -9.449030  -26.031707    9.550750 H    521 MOH     0.0372 ****
3431 HC3    -8.376313  -25.172345    8.396045 H    521 MOH     0.0372 ****
3432 O1     -7.729104  -25.255219   10.338467 O    521 MOH    -0.6497 ****
3433 HO1    -7.266646  -25.970470   10.781116 H    521 MOH     0.4215 ****
3434 HC1   -13.021096  -24.603246    8.663331 H    522 MOH     0.0372 ****
3435 C1    -13.958136  -24.347275    8.170477 C    522 MOH     0.1166 ****
3436 HC2   -14.796448  -24.679181    8.783539 H    522 MOH     0.0372 ****
3437 HC3   -13.976611  -24.846154    7.201741 H    522 MOH     0.0372 ****
3438 O1    -13.988735  -22.963721    7.953396 O    522 MOH    -0.6497 ****
3439 HO1   -14.904990  -22.722447    7.801368 H    522 MOH     0.4215 ****
3440 HC1   -16.350675  -29.313207    6.955668 H    523 MOH     0.0372 ****
3441 C1    -16.045257  -30.293411    6.588680 C    523 MOH     0.1166 ****
3442 HC2   -15.096093  -30.213803    6.059057 H    523 MOH     0.0372 ****
3443 HC3   -16.811978  -30.685738    5.921878 H    523 MOH     0.0372 ****
3444 O1    -15.891682  -31.214011    7.662775 O    523 MOH    -0.6497 ****
3445 HO1   -15.042399  -31.647979    7.554587 H    523 MOH     0.4215 ****
3446 HC1   -10.509623  -31.961514   13.628635 H    524 MOH     0.0372 ****
3447 C1     -9.638401  -31.458143   13.209320 C    524 MOH     0.1166 ****
3448 HC2    -9.936314  -30.508966   12.765965 H    524 MOH     0.0372 ****
3449 HC3    -9.199615  -32.069699   12.420189 H    524 MOH     0.0372 ****
3450 O1     -8.669607  -31.182984   14.195027 O    524 MOH    -0.6497 ****
3451 HO1    -8.239481  -32.021118   14.378168 H    524 MOH     0.4215 ****
3452 HC1   -27.223913  -18.069233   16.329075 H    525 MOH     0.0372 ****
3453 C1    -26.361352  -17.606279   15.849657 C    525 MOH     0.1166 ****
3454 HC2   -25.574423  -17.491561   16.595655 H    525 MOH     0.0372 ****
3455 HC3   -26.678317  -16.614236   15.527216 H    525 MOH     0.0372 ****
3456 O1    -25.978568  -18.393790   14.690709 O    525 MOH    -0.6497 ****
3457 HO1   -26.672543  -18.347658   14.029564 H    525 MOH     0.4215 ****
3458 HC1   -19.064799  -25.637748    1.880763 H    526 MOH     0.0372 ****
3459 C1    -18.141038  -25.449545    1.332755 C    526 MOH     0.1166 ****
3460 HC2   -17.550409  -26.364430    1.370232 H    526 MOH     0.0372 ****
3461 HC3   -17.618536  -24.626108    1.819951 H    526 MOH     0.0372 ****
3462 O1    -18.414125  -25.097227   -0.021355 O    526 MOH    -0.6497 ****
3463 HO1   -17.632393  -24.675098   -0.384808 H    526 MOH     0.4215 ****
3464 HC1   -14.956952  -16.381942   11.901880 H    527 MOH     0.0372 ****
3465 C1    -15.971933  -16.765288   11.797935 C    527 MOH     0.1166 ****
3466 HC2   -16.693044  -15.947974   11.819148 H    527 MOH     0.0372 ****
3467 HC3   -16.206915  -17.460126   12.604037 H    527 MOH     0.0372 ****
3468 O1    -16.099528  -17.477273   10.615653 O    527 MOH    -0.6497 ****
3469 HO1   -15.378995  -18.110466   10.583833 H    527 MOH     0.4215 ****
3470 HC1   -15.423451  -30.715948   11.974712 H    528 MOH     0.0372 ****
3471 C1    -15.921704  -31.491620   11.394884 C    528 MOH     0.1166 ****
3472 HC2   -15.194820  -32.237081   11.072444 H    528 MOH     0.0372 ****
3473 HC3   -16.384162  -31.017644   10.528679 H    528 MOH     0.0372 ****
3474 O1    -16.896849  -32.122363   12.191794 O    528 MOH    -0.6497 ****
3475 HO1   -16.425153  -32.491420   12.941327 H    528 MOH     0.4215 ****
3476 HC1   -12.082902  -24.664075   19.161745 H    529 MOH     0.0372 ****
3477 C1    -12.705286  -23.769603   19.152553 C    529 MOH     0.1166 ****
3478 HC2   -12.261303  -22.982501   19.762079 H    529 MOH     0.0372 ****
3479 HC3   -13.676966  -24.047620   19.561968 H    529 MOH     0.0372 ****
3480 O1    -12.884842  -23.316856   17.830970 O    529 MOH    -0.6497 ****
3481 HO1   -12.027476  -23.041288   17.497923 H    529 MOH     0.4215 ****
3482 HC1   -16.098950  -19.017185    7.681160 H    530 MOH     0.0372 ****
3483 C1    -15.506012  -19.355623    6.831924 C    530 MOH     0.1166 ****
3484 HC2   -15.138817  -20.351341    7.080119 H    530 MOH     0.0372 ****
3485 HC3   -14.659039  -18.685688    6.679896 H    530 MOH     0.0372 ****
3486 O1    -16.310261  -19.406654    5.661663 O    530 MOH    -0.6497 ****
3487 HO1   -15.903229  -20.056994    5.083956 H    530 MOH     0.4215 ****
3488 HC1   -20.342475  -18.696302   13.343671 H    531 MOH     0.0372 ****
3489 C1    -20.161187  -19.734477   13.622978 C    531 MOH     0.1166 ****
3490 HC2   -20.820521  -20.371753   13.033958 H    531 MOH     0.0372 ****
3491 HC3   -20.385776  -19.889203   14.678688 H    531 MOH     0.0372 ****
3492 O1    -18.830972  -20.130070   13.381854 O    531 MOH    -0.6497 ****
3493 HO1   -18.651416  -20.021884   12.444938 H    531 MOH     0.4215 ****
3494 HC1   -16.454021  -24.484446   17.002241 H    532 MOH     0.0372 ****
3495 C1    -16.000224  -23.605079   17.459032 C    532 MOH     0.1166 ****
3496 HC2   -15.163066  -23.288279   16.836778 H    532 MOH     0.0372 ****
3497 HC3   -15.696537  -23.854111   18.475852 H    532 MOH     0.0372 ****
3498 O1    -16.950542  -22.607321   17.423677 O    532 MOH    -0.6497 ****
3499 HO1   -17.278477  -22.551799   16.522823 H    532 MOH     0.4215 ****
3500 HC1   -24.621218  -13.011853   14.673031 H    533 MOH     0.0372 ****
3501 C1    -25.528812  -13.075539   15.272658 C    533 MOH     0.1166 ****
3502 HC2   -26.139649  -13.922246   14.960117 H    533 MOH     0.0372 ****
3503 HC3   -26.077873  -12.143509   15.140429 H    533 MOH     0.0372 ****
3504 O1    -25.156999  -13.258843   16.597069 O    533 MOH    -0.6497 ****
3505 HO1   -24.629878  -14.061459   16.595655 H    533 MOH     0.4215 ****
3506 HC1   -17.084487  -27.083355    9.649745 H    534 MOH     0.0372 ****
3507 C1    -16.157263  -27.260126   10.193510 C    534 MOH     0.1166 ****
3508 HC2   -16.223081  -28.184809   10.766974 H    534 MOH     0.0372 ****
3509 HC3   -15.933828  -26.423626   10.856069 H    534 MOH     0.0372 ****
3510 O1    -15.153828  -27.362188    9.262957 O    534 MOH    -0.6497 ****
3511 HO1   -14.343806  -27.021301    9.649745 H    534 MOH     0.4215 ****
3512 HC1   -19.181424  -26.939243    4.376850 H    535 MOH     0.0372 ****
3513 C1    -18.901409  -27.847596    4.910715 C    535 MOH     0.1166 ****
3514 HC2   -18.093118  -28.343209    4.373314 H    535 MOH     0.0372 ****
3515 HC3   -19.732216  -28.553457    4.934050 H    535 MOH     0.0372 ****
3516 O1    -18.463777  -27.586317    6.230176 O    535 MOH    -0.6497 ****
3517 HO1   -18.811342  -28.290953    6.781720 H    535 MOH     0.4215 ****
3518 HC1    -7.997572  -27.467108   17.780059 H    536 MOH     0.0372 ****
3519 C1     -8.828956  -26.783701   17.610353 C    536 MOH     0.1166 ****
3520 HC2    -9.750984  -27.243796   17.967442 H    536 MOH     0.0372 ****
3521 HC3    -8.899393  -26.595498   16.539086 H    536 MOH     0.0372 ****
3522 O1     -8.501021  -25.563038   18.262306 O    536 MOH    -0.6497 ****
3523 HO1    -7.887875  -25.760222   18.974362 H    536 MOH     0.4215 ****
3524 HC1    -8.237749  -24.640805   13.802583 H    537 MOH     0.0372 ****
3525 C1     -9.247535  -24.961688   13.546610 C    537 MOH     0.1166 ****
3526 HC2    -9.944974  -24.530986   14.265738 H    537 MOH     0.0372 ****
3527 HC3    -9.328941  -26.048037   13.581259 H    537 MOH     0.0372 ****
3528 O1     -9.602605  -24.502409   12.274525 O    537 MOH    -0.6497 ****
3529 HO1    -9.003893  -24.909841   11.645200 H    537 MOH     0.4215 ****
3530 HC1   -12.434508  -17.532386   15.076789 H    538 MOH     0.0372 ****
3531 C1    -12.926988  -17.095969   14.207755 C    538 MOH     0.1166 ****
3532 HC2   -13.869224  -16.608520   14.458071 H    538 MOH     0.0372 ****
3533 HC3   -13.179290  -17.930428   13.552974 H    538 MOH     0.0372 ****
3534 O1    -12.089253  -16.170878   13.507719 O    538 MOH    -0.6497 ****
3535 HO1   -12.630230  -15.471140   13.135781 H    538 MOH     0.4215 ****
3536 HC1    -6.093470  -28.932311   12.737680 H    539 MOH     0.0372 ****
3537 C1     -6.999333  -28.607754   12.226442 C    539 MOH     0.1166 ****
3538 HC2    -7.884988  -29.000489   12.725659 H    539 MOH     0.0372 ****
3539 HC3    -6.991827  -28.955990   11.193359 H    539 MOH     0.0372 ****
3540 O1     -7.092286  -27.215627   12.240584 O    539 MOH    -0.6497 ****
3541 HO1    -6.822086  -26.930262   13.116689 H    539 MOH     0.4215 ****
3542 HC1   -13.559187  -24.368504   14.722529 H    540 MOH     0.0372 ****
3543 C1    -12.895811  -25.190307   14.991937 C    540 MOH     0.1166 ****
3544 HC2   -11.879675  -24.804105   15.069718 H    540 MOH     0.0372 ****
3545 HC3   -12.909668  -25.972919   14.233211 H    540 MOH     0.0372 ****
3546 O1    -13.273976  -25.617335   16.278871 O    540 MOH    -0.6497 ****
3547 HO1   -13.220282  -24.848195   16.850213 H    540 MOH     0.4215 ****
3548 HC1    -9.779275  -18.169253   18.825870 H    541 MOH     0.0372 ****
3549 C1    -10.118756  -18.915123   18.106742 C    541 MOH     0.1166 ****
3550 HC2   -10.625093  -19.752440   18.588282 H    541 MOH     0.0372 ****
3551 HC3    -9.231946  -19.311940   17.611767 H    541 MOH     0.0372 ****
3552 O1    -10.959956  -18.294586   17.152148 O    541 MOH    -0.6497 ****
3553 HO1   -10.430526  -17.609545   16.736369 H    541 MOH     0.4215 ****
3554 HC1   -19.072882  -25.405454    9.844906 H    542 MOH     0.0372 ****
3555 C1    -19.703348  -25.718989   10.676464 C    542 MOH     0.1166 ****
3556 HC2   -20.679648  -26.031707   10.305940 H    542 MOH     0.0372 ****
3557 HC3   -19.873667  -24.891878   11.366600 H    542 MOH     0.0372 ****
3558 O1    -19.101172  -26.773086   11.372257 O    542 MOH    -0.6497 ****
3559 HO1   -19.751846  -27.127446   11.981783 H    542 MOH     0.4215 ****
3560 HC1   -16.410720  -20.673040   12.988703 H    543 MOH     0.0372 ****
3561 C1    -15.754272  -20.397473   13.813897 C    543 MOH     0.1166 ****
3562 HC2   -16.301023  -20.433398   14.757177 H    543 MOH     0.0372 ****
3563 HC3   -15.407862  -19.374811   13.663283 H    543 MOH     0.0372 ****
3564 O1    -14.635368  -21.269491   13.878950 O    543 MOH    -0.6497 ****
3565 HO1   -14.030304  -20.942892   14.549288 H    543 MOH     0.4215 ****
3566 HC1   -12.634272  -15.958181   20.756271 H    544 MOH     0.0372 ****
3567 C1    -12.946041  -16.377043   21.713694 C    544 MOH     0.1166 ****
3568 HC2   -13.473162  -15.630765   22.306249 H    544 MOH     0.0372 ****
3569 HC3   -12.053457  -16.710582   22.241902 H    544 MOH     0.0372 ****
3570 O1    -13.760682  -17.491153   21.486712 O    544 MOH    -0.6497 ****
3571 HO1   -14.446574  -17.249878   20.860923 H    544 MOH     0.4215 ****
3572 HC1   -19.954496  -10.563996   13.036786 H    545 MOH     0.0372 ****
3573 C1    -20.862090  -10.184325   12.567267 C    545 MOH     0.1166 ****
3574 HC2   -20.731609  -10.204329   11.484687 H    545 MOH     0.0372 ****
3575 HC3   -21.005273   -9.153498   12.889001 H    545 MOH     0.0372 ****
3576 O1    -22.002357  -10.977551   12.941327 O    545 MOH    -0.6497 ****
3577 HO1   -22.775429  -10.472548   12.678990 H    545 MOH     0.4215 ****
3578 HC1   -17.796938  -19.033923   19.548533 H    546 MOH     0.0372 ****
3579 C1    -17.214969  -18.791424   18.658992 C    546 MOH     0.1166 ****
3580 HC2   -17.251342  -19.613228   17.944107 H    546 MOH     0.0372 ****
3581 HC3   -16.187862  -18.648129   18.996282 H    546 MOH     0.0372 ****
3582 O1    -17.680890  -17.547083   18.127248 O    546 MOH    -0.6497 ****
3583 HO1   -17.265198  -16.869799   18.665356 H    546 MOH     0.4215 ****
3584 HC1   -20.580343  -23.705100    7.884099 H    547 MOH     0.0372 ****
3585 C1    -20.713711  -24.727762    7.531253 C    547 MOH     0.1166 ****
3586 HC2   -21.712527  -24.805329    7.102746 H    547 MOH     0.0372 ****
3587 HC3   -20.640388  -25.444646    8.348668 H    547 MOH     0.0372 ****
3588 O1    -19.793415  -25.004963    6.519383 O    547 MOH    -0.6497 ****
3589 HO1   -19.677367  -25.952915    6.427459 H    547 MOH     0.4215 ****
3590 HC1   -17.444754  -16.424400    7.193963 H    548 MOH     0.0372 ****
3591 C1    -18.292304  -17.089028    7.363669 C    548 MOH     0.1166 ****
3592 HC2   -19.157752  -16.445221    7.519939 H    548 MOH     0.0372 ****
3593 HC3   -18.059632  -17.690786    8.241895 H    548 MOH     0.0372 ****
3594 O1    -18.425672  -17.790807    6.148152 O    548 MOH    -0.6497 ****
3595 HO1   -17.579854  -18.196606    5.943091 H    548 MOH     0.4215 ****
3596 HC1    -6.493574  -30.038256   17.174775 H    549 MOH     0.0372 ****
3597 C1     -6.109636  -29.441397   16.347460 C    549 MOH     0.1166 ****
3598 HC2    -5.422012  -30.058668   15.769047 H    549 MOH     0.0372 ****
3599 HC3    -5.608496  -28.579585   16.789402 H    549 MOH     0.0372 ****
3600 O1     -7.174847  -29.001714   15.560451 O    549 MOH    -0.6497 ****
3601 HO1    -7.704278  -29.757789   15.298821 H    549 MOH     0.4215 ****
3602 HC1   -28.078391  -21.734486   13.292759 H    550 MOH     0.0372 ****
3603 C1    -28.244668  -20.664059   13.411553 C    550 MOH     0.1166 ****
3604 HC2   -27.891330  -20.343176   14.391603 H    550 MOH     0.0372 ****
3605 HC3   -29.311611  -20.450953   13.339428 H    550 MOH     0.0372 ****
3606 O1    -27.557621  -19.949624   12.401804 O    550 MOH    -0.6497 ****
3607 HO1   -27.648265  -20.479530   11.607016 H    550 MOH     0.4215 ****
3608 HC1   -21.415192  -15.418476   10.443826 H    551 MOH     0.0372 ****
3609 C1    -20.543970  -16.073715   10.424734 C    551 MOH     0.1166 ****
3610 HC2   -20.544548  -16.645263    9.497010 H    551 MOH     0.0372 ****
3611 HC3   -20.571683  -16.782842   11.252756 H    551 MOH     0.0372 ****
3612 O1    -19.365598  -15.289062   10.498273 O    551 MOH    -0.6497 ****
3613 HO1   -19.395043  -14.778343   11.310739 H    551 MOH     0.4215 ****
3614 HC1    -6.601539  -24.581609   15.910468 H    552 MOH     0.0372 ****
3615 C1     -5.961257  -25.456894   16.019363 C    552 MOH     0.1166 ****
3616 HC2    -6.111368  -25.857793   17.022040 H    552 MOH     0.0372 ****
3617 HC3    -4.922604  -25.144175   15.913297 H    552 MOH     0.0372 ****
3618 O1     -6.340576  -26.398722   15.015978 O    552 MOH    -0.6497 ****
3619 HO1    -6.411590  -27.271965   15.408423 H    552 MOH     0.4215 ****
3620 HC1   -25.600404  -22.183559   12.968904 H    553 MOH     0.0372 ****
3621 C1    -25.333091  -23.188258   13.297709 C    553 MOH     0.1166 ****
3622 HC2   -24.388546  -23.477706   12.837382 H    553 MOH     0.0372 ****
3623 HC3   -26.095770  -23.901876   12.987996 H    553 MOH     0.0372 ****
3624 O1    -25.165659  -23.180501   14.726771 O    553 MOH    -0.6497 ****
3625 HO1   -25.994157  -22.992707   15.173663 H    553 MOH     0.4215 ****
3626 HC1    -8.465803  -22.368087   20.331300 H    554 MOH     0.0372 ****
3627 C1     -7.607283  -22.006379   19.765615 C    554 MOH     0.1166 ****
3628 HC2    -7.955425  -21.487087   18.873246 H    554 MOH     0.0372 ****
3629 HC3    -6.977971  -22.846962   19.472165 H    554 MOH     0.0372 ****
3630 O1     -6.857882  -21.116806   20.561110 O    554 MOH    -0.6497 ****
3631 HO1    -6.690451  -21.535260   21.408931 H    554 MOH     0.4215 ****
3632 HC1    -7.666750  -21.046996   10.399278 H    555 MOH     0.0372 ****
3633 C1     -8.113619  -20.633032    9.495596 C    555 MOH     0.1166 ****
3634 HC2    -9.141302  -20.314190    9.667423 H    555 MOH     0.0372 ****
3635 HC3    -8.083019  -21.405438    8.726263 H    555 MOH     0.0372 ****
3636 O1     -7.303019  -19.568729    9.107394 O    555 MOH    -0.6497 ****
3637 HO1    -7.121154  -19.022492    9.875312 H    555 MOH     0.4215 ****
3638 HC1   -14.440800  -23.299301    4.993447 H    556 MOH     0.0372 ****
3639 C1    -15.365138  -22.784092    4.731817 C    556 MOH     0.1166 ****
3640 HC2   -16.078166  -22.831041    5.555597 H    556 MOH     0.0372 ****
3641 HC3   -15.801038  -23.230307    3.838741 H    556 MOH     0.0372 ****
3642 O1    -15.127270  -21.434832    4.452510 O    556 MOH    -0.6497 ****
3643 HO1   -14.622666  -21.404621    3.636509 H    556 MOH     0.4215 ****
3644 HC1   -22.718849  -16.105967   15.045677 H    557 MOH     0.0372 ****
3645 C1    -23.089508  -16.502784   15.990371 C    557 MOH     0.1166 ****
3646 HC2   -22.235029  -16.625667   16.655759 H    557 MOH     0.0372 ****
3647 HC3   -23.561203  -17.478497   15.874406 H    557 MOH     0.0372 ****
3648 O1    -23.944563  -15.567487   16.552521 O    557 MOH    -0.6497 ****
3649 HO1   -23.759811  -15.565854   17.494387 H    557 MOH     0.4215 ****
3650 HC1   -22.721158  -14.692203   11.970469 H    558 MOH     0.0372 ****
3651 C1    -22.154777  -14.387241   12.850817 C    558 MOH     0.1166 ****
3652 HC2   -21.769107  -15.280897   13.342256 H    558 MOH     0.0372 ****
3653 HC3   -22.808915  -13.863459   13.547317 H    558 MOH     0.0372 ****
3654 O1    -21.060121  -13.572786   12.445645 O    558 MOH    -0.6497 ****
3655 HO1   -21.411150  -12.697502   12.268868 H    558 MOH     0.4215 ****
3656 HC1   -15.486382  -16.564838   17.178311 H    559 MOH     0.0372 ****
3657 C1    -14.540682  -16.221909   17.598332 C    559 MOH     0.1166 ****
3658 HC2   -14.654420  -15.247420   18.074215 H    559 MOH     0.0372 ****
3659 HC3   -13.810911  -16.108416   16.796473 H    559 MOH     0.0372 ****
3660 O1    -14.099009  -17.144142   18.570604 O    559 MOH    -0.6497 ****
3661 HO1   -13.267625  -17.532386   18.288468 H    559 MOH     0.4215 ****
3662 HC1   -15.568366  -24.630599   12.249069 H    560 MOH     0.0372 ****
3663 C1    -14.786633  -23.957398   11.897637 C    560 MOH     0.1166 ****
3664 HC2   -14.227181  -24.392182   11.069615 H    560 MOH     0.0372 ****
3665 HC3   -14.101319  -23.752457   12.719295 H    560 MOH     0.0372 ****
3666 O1    -15.360519  -22.757964   11.452160 O    560 MOH    -0.6497 ****
3667 HO1   -15.165375  -22.114565   12.138054 H    560 MOH     0.4215 ****
3668 HC1   -10.668509   -1.889700   12.520598 H    561 MOH     0.0372 ****
3669 C1    -11.704853   -1.750895   12.827483 C    561 MOH     0.1166 ****
3670 HC2   -12.268347   -1.386738   11.969055 H    561 MOH     0.0372 ****
3671 HC3   -11.774712   -1.000943   13.615907 H    561 MOH     0.0372 ****
3672 O1    -12.230242   -2.993603   13.244676 O    561 MOH    -0.6497 ****
3673 HO1   -12.992922   -2.841326   13.806825 H    561 MOH     0.4215 ****
3674 HC1   -16.170080  -12.430670   16.611918 H    562 MOH     0.0372 ****
3675 C1    -16.970865  -12.824630   17.237708 C    562 MOH     0.1166 ****
3676 HC2   -17.536668  -13.554986   16.658587 H    562 MOH     0.0372 ****
3677 HC3   -17.643478  -12.047734   17.599039 H    562 MOH     0.0372 ****
3678 O1    -16.473766  -13.565601   18.282104 O    562 MOH    -0.6497 ****
3679 HO1   -15.929325  -12.969558   18.801121 H    562 MOH     0.4215 ****
3680 HC1    -4.060736  -11.191637   21.118310 H    563 MOH     0.0372 ****
3681 C1     -3.999536  -10.411883   21.876328 C    563 MOH     0.1166 ****
3682 HC2    -3.639270  -10.857690   22.804052 H    563 MOH     0.0372 ****
3683 HC3    -4.992579   -9.986488   22.021992 H    563 MOH     0.0372 ****
3684 O1     -3.128315   -9.389221   21.448529 O    563 MOH    -0.6497 ****
3685 HO1    -2.241505   -9.749296   21.382061 H    563 MOH     0.4215 ****
3686 HC1     2.197741   -6.442485   15.337712 H    564 MOH     0.0372 ****
3687 C1      2.631331   -6.249383   16.318469 C    564 MOH     0.1166 ****
3688 HC2     2.917120   -5.198552   16.369381 H    564 MOH     0.0372 ****
3689 HC3     3.519296   -6.868696   16.445041 H    564 MOH     0.0372 ****
3690 O1      1.676971   -6.564142   17.326096 O    564 MOH    -0.6497 ****
3691 HO1     1.877889   -7.455757   17.618838 H    564 MOH     0.4215 ****
3692 HC1    -4.439477  -17.296174    7.705201 H    565 MOH     0.0372 ****
3693 C1     -4.626539  -18.282093    8.130172 C    565 MOH     0.1166 ****
3694 HC2    -5.018560  -18.187380    9.142749 H    565 MOH     0.0372 ****
3695 HC3    -3.669292  -18.798527    8.198762 H    565 MOH     0.0372 ****
3696 O1     -5.467738  -19.085934    7.280937 O    565 MOH    -0.6497 ****
3697 HO1    -6.183652  -19.432129    7.818338 H    565 MOH     0.4215 ****
3698 HC1    -1.809069  -16.824239   14.342106 H    566 MOH     0.0372 ****
3699 C1     -2.657774  -16.389454   14.870314 C    566 MOH     0.1166 ****
3700 HC2    -2.794029  -15.362301   14.532317 H    566 MOH     0.0372 ****
3701 HC3    -2.493230  -16.401702   15.947945 H    566 MOH     0.0372 ****
3702 O1     -3.823445  -17.087559   14.536560 O    566 MOH    -0.6497 ****
3703 HO1    -3.796309  -17.888134   15.066183 H    566 MOH     0.4215 ****
3704 HC1     6.267483   -8.053841   10.722426 H    567 MOH     0.0372 ****
3705 C1      6.072916   -7.312462   11.497415 C    567 MOH     0.1166 ****
3706 HC2     5.008860   -7.270412   11.730053 H    567 MOH     0.0372 ****
3707 HC3     6.374293   -6.324093   11.150226 H    567 MOH     0.0372 ****
3708 O1      6.742643   -7.642735   12.708689 O    567 MOH    -0.6497 ****
3709 HO1     6.524982   -8.537207   12.980925 H    567 MOH     0.4215 ****
3710 HC1    -9.618887   -3.341022   17.189624 H    568 MOH     0.0372 ****
3711 C1     -9.014978   -2.789479   17.910166 C    568 MOH     0.1166 ****
3712 HC2    -8.203224   -3.424713   18.263720 H    568 MOH     0.0372 ****
3713 HC3    -9.663343   -2.503705   18.738895 H    568 MOH     0.0372 ****
3714 O1     -8.510374   -1.665571   17.254678 O    568 MOH    -0.6497 ****
3715 HO1    -7.697465   -1.403884   17.693792 H    568 MOH     0.4215 ****
3716 HC1    -2.914695   -9.748479    4.728282 H    569 MOH     0.0372 ****
3717 C1     -3.706820  -10.280835    5.254369 C    569 MOH     0.1166 ****
3718 HC2    -3.679684  -10.023230    6.312908 H    569 MOH     0.0372 ****
3719 HC3    -3.541120  -11.348404    5.112241 H    569 MOH     0.0372 ****
3720 O1     -4.935421   -9.865238    4.698583 O    569 MOH    -0.6497 ****
3721 HO1    -5.629973  -10.224089    5.256490 H    569 MOH     0.4215 ****
3722 HC1   -11.557051   -8.662539   21.574394 H    570 MOH     0.0372 ****
3723 C1    -12.577229   -8.955253   21.822588 C    570 MOH     0.1166 ****
3724 HC2   -12.738310   -8.897690   22.898097 H    570 MOH     0.0372 ****
3725 HC3   -12.785653   -9.977506   21.505804 H    570 MOH     0.0372 ****
3726 O1    -13.463462   -8.062822   21.221547 O    570 MOH    -0.6497 ****
3727 HO1   -13.011974   -7.686417   20.462115 H    570 MOH     0.4215 ****
3728 HC1     1.150428   -3.689666   12.251191 H    571 MOH     0.0372 ****
3729 C1      1.198925   -4.777240   12.200279 C    571 MOH     0.1166 ****
3730 HC2     0.820761   -5.132008   11.242149 H    571 MOH     0.0372 ****
3731 HC3     0.592130   -5.223863   12.987996 H    571 MOH     0.0372 ****
3732 O1      2.535491   -5.211616   12.273818 O    571 MOH    -0.6497 ****
3733 HO1     2.503160   -6.170999   12.295031 H    571 MOH     0.4215 ****
3734 HC1    -7.759819   -4.714370    6.677775 H    572 MOH     0.0372 ****
3735 C1     -7.714208   -5.169158    5.687825 C    572 MOH     0.1166 ****
3736 HC2    -6.796798   -5.748054    5.578931 H    572 MOH     0.0372 ****
3737 HC3    -7.724600   -4.391445    4.924857 H    572 MOH     0.0372 ****
3738 O1     -8.817524   -6.005659    5.470744 O    572 MOH    -0.6497 ****
3739 HO1    -8.558294   -6.893191    5.728131 H    572 MOH     0.4215 ****
3740 HC1   -16.958163   -5.875836   17.778644 H    573 MOH     0.0372 ****
3741 C1    -15.917778   -5.848483   17.452668 C    573 MOH     0.1166 ****
3742 HC2   -15.333500   -6.488208   18.115227 H    573 MOH     0.0372 ****
3743 HC3   -15.576564   -4.814799   17.506408 H    573 MOH     0.0372 ****
3744 O1    -15.850805   -6.330624   16.129671 O    573 MOH    -0.6497 ****
3745 HO1   -16.445476   -7.083434   16.085831 H    573 MOH     0.4215 ****
3746 HC1   -14.077763  -10.558036   13.618735 H    574 MOH     0.0372 ****
3747 C1    -13.163240  -10.251849   13.111032 C    574 MOH     0.1166 ****
3748 HC2   -12.567992   -9.597427   13.748136 H    574 MOH     0.0372 ****
3749 HC3   -13.438636   -9.705613   12.208764 H    574 MOH     0.0372 ****
3750 O1    -12.461182  -11.391270   12.712931 O    574 MOH    -0.6497 ****
3751 HO1   -11.526452  -11.192453   12.802734 H    574 MOH     0.4215 ****
3752 HC1   -19.735218   -6.958102   16.478275 H    575 MOH     0.0372 ****
3753 C1    -20.169963   -7.843593   16.941430 C    575 MOH     0.1166 ****
3754 HC2   -20.582191   -8.518427   16.191190 H    575 MOH     0.0372 ****
3755 HC3   -20.992110   -7.557411   17.598332 H    575 MOH     0.0372 ****
3756 O1    -19.264678   -8.546188   17.736925 O    575 MOH    -0.6497 ****
3757 HO1   -19.791221   -9.263888   18.097549 H    575 MOH     0.4215 ****
3758 HC1     5.946477   -6.024030   14.504033 H    576 MOH     0.0372 ****
3759 C1      6.029038   -5.084242   15.049919 C    576 MOH     0.1166 ****
3760 HC2     5.202272   -4.428596   14.776976 H    576 MOH     0.0372 ****
3761 HC3     6.986285   -4.622105   14.805260 H    576 MOH     0.0372 ****
3762 O1      5.988046   -5.442276   16.391301 O    576 MOH    -0.6497 ****
3763 HO1     6.212058   -4.699264   16.955572 H    576 MOH     0.4215 ****
3764 HC1    -6.146125   -1.399802   14.247353 H    577 MOH     0.0372 ****
3765 C1     -6.811810   -0.540847   14.332206 C    577 MOH     0.1166 ****
3766 HC2    -7.853927   -0.860914   14.325135 H    577 MOH     0.0372 ****
3767 HC3    -6.676710    0.083773   13.449737 H    577 MOH     0.0372 ****
3768 O1     -6.586066    0.256053   15.535702 O    577 MOH    -0.6497 ****
3769 HO1    -6.658812   -0.311003   16.305741 H    577 MOH     0.4215 ****
3770 HC1    -6.071647  -12.053857   23.197204 H    578 MOH     0.0372 ****
3771 C1     -5.772002  -13.101014   23.182354 C    578 MOH     0.1166 ****
3772 HC2    -5.138071  -13.289625   22.315442 H    578 MOH     0.0372 ****
3773 HC3    -6.639759  -13.755028   23.103158 H    578 MOH     0.0372 ****
3774 O1     -5.067057  -13.412099   24.375951 O    578 MOH    -0.6497 ****
3775 HO1    -4.632890  -14.260439   24.257157 H    578 MOH     0.4215 ****
3776 HC1   -15.379110  -15.558261    4.840712 H    579 MOH     0.0372 ****
3777 C1    -14.966305  -14.550704    4.803942 C    579 MOH     0.1166 ****
3778 HC2   -15.051753  -14.079994    5.783285 H    579 MOH     0.0372 ****
3779 HC3   -15.543078  -13.962826    4.089764 H    579 MOH     0.0372 ****
3780 O1    -13.626852  -14.606226    4.372607 O    579 MOH    -0.6497 ****
3781 HO1   -13.593366  -15.266771    3.676814 H    579 MOH     0.4215 ****
3782 HC1     0.734159  -17.401502   10.789601 H    580 MOH     0.0372 ****
3783 C1      0.054040  -17.970192   11.423876 C    580 MOH     0.1166 ****
3784 HC2     0.408533  -17.933041   12.454130 H    580 MOH     0.0372 ****
3785 HC3    -0.000808  -19.006734   11.092243 H    580 MOH     0.0372 ****
3786 O1     -1.178603  -17.347205   11.341851 O    580 MOH    -0.6497 ****
3787 HO1    -1.076412  -16.454366   11.677727 H    580 MOH     0.4215 ****
3788 HC1    -9.205504    2.854146   16.981028 H    581 MOH     0.0372 ****
3789 C1     -9.659878    3.152167   16.036333 C    581 MOH     0.1166 ****
3790 HC2   -10.740678    3.017445   16.084416 H    581 MOH     0.0372 ****
3791 HC3    -9.237258    2.527547   15.248616 H    581 MOH     0.0372 ****
3792 O1     -9.378132    4.509592   15.776825 O    581 MOH    -0.6497 ****
3793 HO1    -9.647754    4.703919   14.875971 H    581 MOH     0.4215 ****
3794 HC1    -8.164541    5.767814   20.104318 H    582 MOH     0.0372 ****
3795 C1     -8.506333    5.098286   19.315187 C    582 MOH     0.1166 ****
3796 HC2    -9.004586    4.222186   19.730966 H    582 MOH     0.0372 ****
3797 HC3    -7.633956    4.780261   18.744552 H    582 MOH     0.0372 ****
3798 O1     -9.287488    5.828234   18.393120 O    582 MOH    -0.6497 ****
3799 HO1    -9.260352    5.341194   17.566512 H    582 MOH     0.4215 ****
3800 HC1    -5.397879  -10.938115   15.773290 H    583 MOH     0.0372 ****
3801 C1     -5.538175  -11.092433   14.704144 C    583 MOH     0.1166 ****
3802 HC2    -5.734474  -10.137948   14.214826 H    583 MOH     0.0372 ****
3803 HC3    -6.372446  -11.771349   14.528075 H    583 MOH     0.0372 ****
3804 O1     -4.362690  -11.646834   14.152601 O    583 MOH    -0.6497 ****
3805 HO1    -3.716057  -11.747671   14.854758 H    583 MOH     0.4215 ****
3806 HC1    -2.634680   -2.901747   17.063759 H    584 MOH     0.0372 ****
3807 C1     -2.152016   -3.867663   16.916681 C    584 MOH     0.1166 ****
3808 HC2    -2.925088   -4.621697   16.768896 H    584 MOH     0.0372 ****
3809 HC3    -1.587367   -4.110162   17.816121 H    584 MOH     0.0372 ****
3810 O1     -1.243844   -3.839902   15.793796 O    584 MOH    -0.6497 ****
3811 HO1    -0.532548   -3.235694   16.022898 H    584 MOH     0.4215 ****
3812 HC1    -7.941684  -11.144280    8.404530 H    585 MOH     0.0372 ****
3813 C1     -8.102765  -12.157144    8.772932 C    585 MOH     0.1166 ****
3814 HC2    -8.853897  -12.112237    9.560649 H    585 MOH     0.0372 ****
3815 HC3    -7.177850  -12.557636    9.188004 H    585 MOH     0.0372 ****
3816 O1     -8.554253  -13.003851    7.716515 O    585 MOH    -0.6497 ****
3817 HO1    -8.149530  -13.861989    7.866422 H    585 MOH     0.4215 ****
3818 HC1     1.063825  -17.027138   16.018656 H    586 MOH     0.0372 ****
3819 C1      0.897549  -16.940181   17.092751 C    586 MOH     0.1166 ****
3820 HC2     0.969717  -15.884043   17.352259 H    586 MOH     0.0372 ****
3821 HC3     1.684477  -17.494174   17.605403 H    586 MOH     0.0372 ****
3822 O1     -0.428048  -17.459065   17.326803 O    586 MOH    -0.6497 ****
3823 HO1    -0.739239  -17.110421   18.165432 H    586 MOH     0.4215 ****
3824 HC1    -0.070091    0.369955   25.199730 H    587 MOH     0.0372 ****
3825 C1     -0.781386   -0.455932   25.189123 C    587 MOH     0.1166 ****
3826 HC2    -0.419387   -1.187104   24.465753 H    587 MOH     0.0372 ****
3827 HC3    -1.770387   -0.083609   24.919009 H    587 MOH     0.0372 ****
3828 O1     -0.844895   -1.029520   26.473936 O    587 MOH    -0.6497 ****
3829 HO1    -1.120868   -0.345704   27.088412 H    587 MOH     0.4215 ****
3830 HC1    -4.140410    1.899661    8.191691 H    588 MOH     0.0372 ****
3831 C1     -4.721224    2.280965    9.031733 C    588 MOH     0.1166 ****
3832 HC2    -4.423889    3.288113    9.323769 H    588 MOH     0.0372 ****
3833 HC3    -4.513378    1.625726    9.878140 H    588 MOH     0.0372 ****
3834 O1     -6.100514    2.237282    8.746769 O    588 MOH    -0.6497 ****
3835 HO1    -6.505814    1.562448    9.296191 H    588 MOH     0.4215 ****
3836 HC1   -15.562708   -8.457190   19.217607 H    589 MOH     0.0372 ****
3837 C1    -15.954151   -9.226330   18.552926 C    589 MOH     0.1166 ****
3838 HC2   -15.454743   -9.192445   17.584897 H    589 MOH     0.0372 ****
3839 HC3   -17.025713   -9.063847   18.428475 H    589 MOH     0.0372 ****
3840 O1    -15.813278  -10.493124   19.137704 O    589 MOH    -0.6497 ****
3841 HO1   -16.259569  -10.493532   19.986939 H    589 MOH     0.4215 ****
3842 HC1     0.657371  -10.889125   14.837080 H    590 MOH     0.0372 ****
3843 C1      0.640628  -11.896273   14.419180 C    590 MOH     0.1166 ****
3844 HC2     1.142345  -12.554778   15.126994 H    590 MOH     0.0372 ****
3845 HC3     1.191997  -11.924851   13.478728 H    590 MOH     0.0372 ****
3846 O1     -0.702289  -12.331874   14.269981 O    590 MOH    -0.6497 ****
3847 HO1    -1.194191  -12.071004   15.052748 H    590 MOH     0.4215 ****
3848 HC1    -5.207931   -7.098131   13.968753 H    591 MOH     0.0372 ****
3849 C1     -6.271410   -6.897273   13.837231 C    591 MOH     0.1166 ****
3850 HC2    -6.853379   -7.818281   13.864101 H    591 MOH     0.0372 ****
3851 HC3    -6.436532   -6.426563   12.867788 H    591 MOH     0.0372 ****
3852 O1     -6.721743   -6.006884   14.816574 O    591 MOH    -0.6497 ****
3853 HO1    -6.611469   -5.112412   14.486355 H    591 MOH     0.4215 ****
3854 HC1    -1.494991   -4.170583   11.172146 H    592 MOH     0.0372 ****
3855 C1     -1.899136   -3.824797   10.221087 C    592 MOH     0.1166 ****
3856 HC2    -2.832134   -4.348171   10.008955 H    592 MOH     0.0372 ****
3857 HC3    -1.178026   -3.969725    9.417107 H    592 MOH     0.0372 ****
3858 O1     -2.145665   -2.458798   10.375236 O    592 MOH    -0.6497 ****
3859 HO1    -1.321208   -2.003193   10.563327 H    592 MOH     0.4215 ****
3860 HC1    -5.727546  -15.426396   16.375745 H    593 MOH     0.0372 ****
3861 C1     -5.913453  -14.840560   15.475598 C    593 MOH     0.1166 ****
3862 HC2    -5.895555  -15.464363   14.581815 H    593 MOH     0.0372 ****
3863 HC3    -5.165784  -14.055090   15.366703 H    593 MOH     0.0372 ****
3864 O1     -7.155910  -14.252274   15.604998 O    593 MOH    -0.6497 ****
3865 HO1    -7.454400  -14.141639   14.699194 H    593 MOH     0.4215 ****
3866 HC1    -4.542823  -11.851366   17.794908 H    594 MOH     0.0372 ****
3867 C1     -3.788804  -12.604992   17.567219 C    594 MOH     0.1166 ****
3868 HC2    -4.274932  -13.494565   17.167704 H    594 MOH     0.0372 ****
3869 HC3    -3.299788  -12.894440   18.497065 H    594 MOH     0.0372 ****
3870 O1     -2.854651  -12.062839   16.622525 O    594 MOH    -0.6497 ****
3871 HO1    -2.638144  -11.165101   16.882033 H    594 MOH     0.4215 ****
3872 HC1    -6.297390   -3.498606    8.708586 H    595 MOH     0.0372 ****
3873 C1     -6.534681   -3.785196    9.733890 C    595 MOH     0.1166 ****
3874 HC2    -5.772579   -4.447783   10.143305 H    595 MOH     0.0372 ****
3875 HC3    -7.487887   -4.313878    9.714799 H    595 MOH     0.0372 ****
3876 O1     -6.636295   -2.658839   10.571812 O    595 MOH    -0.6497 ****
3877 HO1    -5.862646   -2.102397   10.452311 H    595 MOH     0.4215 ****
3878 HC1    -8.606214  -18.480910   15.060526 H    596 MOH     0.0372 ****
3879 C1     -9.013246  -17.480294   14.915569 C    596 MOH     0.1166 ****
3880 HC2   -10.058827  -17.526017   14.610099 H    596 MOH     0.0372 ****
3881 HC3    -8.456680  -17.022647   14.098861 H    596 MOH     0.0372 ****
3882 O1     -8.858516  -16.656448   16.072396 O    596 MOH    -0.6497 ****
3883 HO1    -8.575615  -15.776265   15.812180 H    596 MOH     0.4215 ****
3884 HC1    -9.200308  -14.075503   17.282963 H    597 MOH     0.0372 ****
3885 C1     -9.111973  -13.089583   17.739046 C    597 MOH     0.1166 ****
3886 HC2    -9.712995  -13.057740   18.646972 H    597 MOH     0.0372 ****
3887 HC3    -9.464157  -12.354328   17.015676 H    597 MOH     0.0372 ****
3888 O1     -7.771943  -12.885867   18.046638 O    597 MOH    -0.6497 ****
3889 HO1    -7.286969  -13.352495   17.362866 H    597 MOH     0.4215 ****
3890 HC1     0.744551   -2.283251    9.505495 H    598 MOH     0.0372 ****
3891 C1      1.164862   -1.399802    9.986328 C    598 MOH     0.1166 ****
3892 HC2     1.418319   -0.658015    9.229016 H    598 MOH     0.0372 ****
3893 HC3     2.051672   -1.682718   10.552720 H    598 MOH     0.0372 ****
3894 O1      0.159695   -0.903372   10.809400 O    598 MOH    -0.6497 ****
3895 HO1     0.515920   -0.707004   11.678434 H    598 MOH     0.4215 ****
3896 HC1    -4.904244    0.024577   22.081389 H    599 MOH     0.0372 ****
3897 C1     -4.946968    0.898636   21.431558 C    599 MOH     0.1166 ****
3898 HC2    -4.146183    1.598782   21.669853 H    599 MOH     0.0372 ****
3899 HC3    -5.886317    1.414662   21.626719 H    599 MOH     0.0372 ****
3900 O1     -4.946391    0.544277   20.039972 O    599 MOH    -0.6497 ****
3901 HO1    -4.837272    1.336687   19.508935 H    599 MOH     0.4215 ****
3902 HC1    -7.236739  -18.912837   18.096842 H    600 MOH     0.0372 ****
3903 C1     -6.160558  -18.904672   17.927137 C    600 MOH     0.1166 ****
3904 HC2    -5.740247  -18.044493   18.446860 H    600 MOH     0.0372 ****
3905 HC3    -5.956754  -18.844251   16.857991 H    600 MOH     0.0372 ****
3906 O1     -5.567042  -20.049400   18.427768 O    600 MOH    -0.6497 ****
3907 HO1    -6.028923  -20.310679   19.226799 H    600 MOH     0.4215 ****
3908 HC1   -10.590567   -4.244884   10.695556 H    601 MOH     0.0372 ****
3909 C1    -11.173113   -5.117719   10.991126 C    601 MOH     0.1166 ****
3910 HC2   -10.837096   -6.032603   10.503930 H    601 MOH     0.0372 ****
3911 HC3   -12.193291   -4.937681   10.653836 H    601 MOH     0.0372 ****
3912 O1    -11.180042   -5.264688   12.394026 O    601 MOH    -0.6497 ****
3913 HO1   -11.366526   -4.402876   12.775157 H    601 MOH     0.4215 ****
3914 HC1   -11.421374   -7.259389   14.966481 H    602 MOH     0.0372 ****
3915 C1    -10.389649   -7.543122   14.760713 C    602 MOH     0.1166 ****
3916 HC2   -10.118872   -8.369008   15.417615 H    602 MOH     0.0372 ****
3917 HC3    -9.741285   -6.692332   14.971430 H    602 MOH     0.0372 ****
3918 O1    -10.251662   -7.862372   13.398825 O    602 MOH    -0.6497 ****
3919 HO1   -10.548420   -7.069554   12.946277 H    602 MOH     0.4215 ****
3920 HC1    -5.927309   -7.986888    9.279928 H    603 MOH     0.0372 ****
3921 C1     -5.912875   -7.279394    8.450492 C    603 MOH     0.1166 ****
3922 HC2    -6.903608   -6.848283    8.309070 H    603 MOH     0.0372 ****
3923 HC3    -5.573971   -7.772558    7.539738 H    603 MOH     0.0372 ****
3924 O1     -5.035880   -6.227746    8.757376 O    603 MOH    -0.6497 ****
3925 HO1    -4.839581   -6.220806    9.697121 H    603 MOH     0.4215 ****
3926 HC1     0.204151  -11.821564   22.609598 H    604 MOH     0.0372 ****
3927 C1      0.279206  -10.779714   22.299885 C    604 MOH     0.1166 ****
3928 HC2     1.317860  -10.555178   22.056640 H    604 MOH     0.0372 ****
3929 HC3    -0.082792  -10.178365   23.134978 H    604 MOH     0.0372 ****
3930 O1     -0.608758  -10.622130   21.223669 O    604 MOH    -0.6497 ****
3931 HO1    -0.241564  -11.142647   20.505955 H    604 MOH     0.4215 ****
3932 HC1   -10.070952  -15.734216   23.158313 H    605 MOH     0.0372 ****
3933 C1     -9.078487  -15.713395   22.707886 C    605 MOH     0.1166 ****
3934 HC2    -8.555407  -14.802185   22.997800 H    605 MOH     0.0372 ****
3935 HC3    -9.138531  -15.768917   21.621770 H    605 MOH     0.0372 ****
3936 O1     -8.343520  -16.778106   23.156191 O    605 MOH    -0.6497 ****
3937 HO1    -8.790389  -17.574191   22.860621 H    605 MOH     0.4215 ****
3938 HC1   -12.130938   -3.504730   16.163612 H    606 MOH     0.0372 ****
3939 C1    -12.370538   -4.137515   17.017797 C    606 MOH     0.1166 ****
3940 HC2   -13.416119   -4.012999   17.298519 H    606 MOH     0.0372 ****
3941 HC3   -11.738339   -3.830104   17.851476 H    606 MOH     0.0372 ****
3942 O1    -12.068584   -5.487592   16.701721 O    606 MOH    -0.6497 ****
3943 HO1   -12.531041   -5.760710   15.906226 H    606 MOH     0.4215 ****
3944 HC1    -1.173407   -3.348371    6.631106 H    607 MOH     0.0372 ****
3945 C1     -0.429780   -3.869296    6.028651 C    607 MOH     0.1166 ****
3946 HC2     0.485898   -3.279785    5.980568 H    607 MOH     0.0372 ****
3947 HC3    -0.765797   -3.990545    4.998396 H    607 MOH     0.0372 ****
3948 O1     -0.091452   -5.098123    6.612721 O    607 MOH    -0.6497 ****
3949 HO1    -0.795242   -5.369608    7.205984 H    607 MOH     0.4215 ****
3950 HC1    -2.895643  -15.131233   18.684448 H    608 MOH     0.0372 ****
3951 C1     -2.644495  -15.651749   19.608637 C    608 MOH     0.1166 ****
3952 HC2    -3.311335  -16.505397   19.729552 H    608 MOH     0.0372 ****
3953 HC3    -2.767471  -14.981814   20.459286 H    608 MOH     0.0372 ****
3954 O1     -1.304465  -16.082451   19.511763 O    608 MOH    -0.6497 ****
3955 HO1    -1.114517  -16.638077   20.270489 H    608 MOH     0.4215 ****
3956 HC1    -1.422822   -8.200810    8.663331 H    609 MOH     0.0372 ****
3957 C1     -2.359862   -7.944838    8.170477 C    609 MOH     0.1166 ****
3958 HC2    -3.198174   -8.276744    8.783539 H    609 MOH     0.0372 ****
3959 HC3    -2.378337   -8.443718    7.201741 H    609 MOH     0.0372 ****
3960 O1     -2.390461   -6.561285    7.953396 O    609 MOH    -0.6497 ****
3961 HO1    -3.306716   -6.320010    7.801368 H    609 MOH     0.4215 ****
3962 HC1   -11.369413   -8.902997   17.905216 H    610 MOH     0.0372 ****
3963 C1    -12.379198   -8.503730   17.997140 C    610 MOH     0.1166 ****
3964 HC2   -12.991767   -9.245109   18.510500 H    610 MOH     0.0372 ****
3965 HC3   -12.780457   -8.311853   17.001534 H    610 MOH     0.0372 ****
3966 O1    -12.311071   -7.314911   18.759401 O    610 MOH    -0.6497 ****
3967 HO1   -11.976785   -6.621705   18.185231 H    610 MOH     0.4215 ****
3968 HC1    -4.752401  -12.910770    6.955668 H    611 MOH     0.0372 ****
3969 C1     -4.446983  -13.890975    6.588680 C    611 MOH     0.1166 ****
3970 HC2    -3.497819  -13.811366    6.059057 H    611 MOH     0.0372 ****
3971 HC3    -5.213704  -14.283301    5.921878 H    611 MOH     0.0372 ****
3972 O1     -4.293408  -14.811575    7.662775 O    611 MOH    -0.6497 ****
3973 HO1    -3.444125  -15.245542    7.554587 H    611 MOH     0.4215 ****
3974 HC1     1.088652  -15.559077   13.628635 H    612 MOH     0.0372 ****
3975 C1      1.959873  -15.055707   13.209320 C    612 MOH     0.1166 ****
3976 HC2     1.661960  -14.106530   12.765965 H    612 MOH     0.0372 ****
3977 HC3     2.398659  -15.667263   12.420189 H    612 MOH     0.0372 ****
3978 O1      2.928667  -14.780548   14.195027 O    612 MOH    -0.6497 ****
3979 HO1     3.358793  -15.618681   14.378168 H    612 MOH     0.4215 ****
3980 HC1   -15.625639   -1.666796   16.329075 H    613 MOH     0.0372 ****
3981 C1    -14.763077   -1.203842   15.849657 C    613 MOH     0.1166 ****
3982 HC2   -13.976149   -1.089125   16.595655 H    613 MOH     0.0372 ****
3983 HC3   -15.080043   -0.211799   15.527216 H    613 MOH     0.0372 ****
3984 O1    -14.380294   -1.991353   14.690709 O    613 MOH    -0.6497 ****
3985 HO1   -15.074269   -1.945221   14.029564 H    613 MOH     0.4215 ****
3986 HC1    -8.939345   -6.229379   22.589799 H    614 MOH     0.0372 ****
3987 C1     -8.331396   -5.358585   22.341604 C    614 MOH     0.1166 ****
3988 HC2    -7.281773   -5.628029   22.227053 H    614 MOH     0.0372 ****
3989 HC3    -8.387976   -4.636394   23.156899 H    614 MOH     0.0372 ****
3990 O1     -8.726303   -4.796427   21.131745 O    614 MOH    -0.6497 ****
3991 HO1    -8.444556   -5.394919   20.435952 H    614 MOH     0.4215 ****
3992 HC1    -3.358678    0.020494   11.901880 H    615 MOH     0.0372 ****
3993 C1     -4.373659   -0.362851   11.797935 C    615 MOH     0.1166 ****
3994 HC2    -5.094770    0.454462   11.819148 H    615 MOH     0.0372 ****
3995 HC3    -4.608641   -1.057690   12.604037 H    615 MOH     0.0372 ****
3996 O1     -4.501254   -1.074836   10.615653 O    615 MOH    -0.6497 ****
3997 HO1    -3.780721   -1.708029   10.583833 H    615 MOH     0.4215 ****
3998 HC1    -9.879849  -13.973441   12.791420 H    616 MOH     0.0372 ****
3999 C1     -9.023061  -14.231454   12.167752 C    616 MOH     0.1166 ****
4000 HC2    -8.837154  -13.438227   11.444382 H    616 MOH     0.0372 ****
4001 HC3    -9.269012  -15.135315   11.610552 H    616 MOH     0.0372 ****
4002 O1     -7.859700  -14.422106   12.968904 O    616 MOH    -0.6497 ****
4003 HO1    -7.163416  -14.769933   12.407461 H    616 MOH     0.4215 ****
4004 HC1    -3.825177  -14.313512   11.974712 H    617 MOH     0.0372 ****
4005 C1     -4.323430  -15.089183   11.394884 C    617 MOH     0.1166 ****
4006 HC2    -3.596546  -15.834645   11.072444 H    617 MOH     0.0372 ****
4007 HC3    -4.785887  -14.615207   10.528679 H    617 MOH     0.0372 ****
4008 O1     -5.298574  -15.719927   12.191794 O    617 MOH    -0.6497 ****
4009 HO1    -4.826879  -16.088983   12.941327 H    617 MOH     0.4215 ****
4010 HC1    -0.484628   -8.261639   19.161745 H    618 MOH     0.0372 ****
4011 C1     -1.107012   -7.367167   19.152553 C    618 MOH     0.1166 ****
4012 HC2    -0.663029   -6.580064   19.762079 H    618 MOH     0.0372 ****
4013 HC3    -2.078692   -7.645184   19.561968 H    618 MOH     0.0372 ****
4014 O1     -1.286568   -6.914420   17.830970 O    618 MOH    -0.6497 ****
4015 HO1    -0.429202   -6.638852   17.497923 H    618 MOH     0.4215 ****
4016 HC1    -4.500676   -2.614749    7.681160 H    619 MOH     0.0372 ****
4017 C1     -3.907738   -2.953186    6.831924 C    619 MOH     0.1166 ****
4018 HC2    -3.540543   -3.948904    7.080119 H    619 MOH     0.0372 ****
4019 HC3    -3.060765   -2.283251    6.679896 H    619 MOH     0.0372 ****
4020 O1     -4.711987   -3.004217    5.661663 O    619 MOH    -0.6497 ****
4021 HO1    -4.304955   -3.654557    5.083956 H    619 MOH     0.4215 ****
4022 HC1    -8.744201   -2.293865   13.343671 H    620 MOH     0.0372 ****
4023 C1     -8.562913   -3.332041   13.622978 C    620 MOH     0.1166 ****
4024 HC2    -9.222247   -3.969316   13.033958 H    620 MOH     0.0372 ****
4025 HC3    -8.787502   -3.486767   14.678688 H    620 MOH     0.0372 ****
4026 O1     -7.232698   -3.727633   13.381854 O    620 MOH    -0.6497 ****
4027 HO1    -7.053142   -3.619448   12.444938 H    620 MOH     0.4215 ****
4028 HC1    -4.855747   -8.082010   17.002241 H    621 MOH     0.0372 ****
4029 C1     -4.401950   -7.202643   17.459032 C    621 MOH     0.1166 ****
4030 HC2    -3.564792   -6.885842   16.836778 H    621 MOH     0.0372 ****
4031 HC3    -4.098263   -7.451674   18.475852 H    621 MOH     0.0372 ****
4032 O1     -5.352268   -6.204884   17.423677 O    621 MOH    -0.6497 ****
4033 HO1    -5.680203   -6.149362   16.522823 H    621 MOH     0.4215 ****
4034 HC1   -13.022944    3.390584   14.673031 H    622 MOH     0.0372 ****
4035 C1    -13.930538    3.326897   15.272658 C    622 MOH     0.1166 ****
4036 HC2   -14.541375    2.480190   14.960117 H    622 MOH     0.0372 ****
4037 HC3   -14.479598    4.258928   15.140429 H    622 MOH     0.0372 ****
4038 O1    -13.558725    3.143594   16.597069 O    622 MOH    -0.6497 ****
4039 HO1   -13.031604    2.340977   16.595655 H    622 MOH     0.4215 ****
4040 HC1     2.507201   -4.762951   22.379081 H    623 MOH     0.0372 ****
4041 C1      2.254322   -3.898281   22.992850 C    623 MOH     0.1166 ****
4042 HC2     3.062035   -3.714978   23.700664 H    623 MOH     0.0372 ****
4043 HC3     1.336335   -4.130983   23.531665 H    623 MOH     0.0372 ****
4044 O1      2.062064   -2.789887   22.136544 O    623 MOH    -0.6497 ****
4045 HO1     1.376749   -3.060964   21.521361 H    623 MOH     0.4215 ****
4046 HC1    -1.233451  -12.022422   18.844961 H    624 MOH     0.0372 ****
4047 C1     -0.410727  -12.713178   18.659700 C    624 MOH     0.1166 ****
4048 HC2    -0.135331  -12.591929   17.612474 H    624 MOH     0.0372 ****
4049 HC3    -0.719032  -13.752987   18.766473 H    624 MOH     0.0372 ****
4050 O1      0.679310  -12.402501   19.544290 O    624 MOH    -0.6497 ****
4051 HO1     1.290147  -13.143064   19.557018 H    624 MOH     0.4215 ****
4052 HC1    -5.486213  -10.680918    9.649745 H    625 MOH     0.0372 ****
4053 C1     -4.558989  -10.857690   10.193510 C    625 MOH     0.1166 ****
4054 HC2    -4.624807  -11.782372   10.766974 H    625 MOH     0.0372 ****
4055 HC3    -4.335554  -10.021189   10.856069 H    625 MOH     0.0372 ****
4056 O1     -3.555554  -10.959752    9.262957 O    625 MOH    -0.6497 ****
4057 HO1    -2.745532  -10.618865    9.649745 H    625 MOH     0.4215 ****
4058 HC1     3.600703  -11.064672   17.780059 H    626 MOH     0.0372 ****
4059 C1      2.769318  -10.381264   17.610353 C    626 MOH     0.1166 ****
4060 HC2     1.847290  -10.841360   17.967442 H    626 MOH     0.0372 ****
4061 HC3     2.698881  -10.193062   16.539086 H    626 MOH     0.0372 ****
4062 O1      3.097253   -9.160602   18.262306 O    626 MOH    -0.6497 ****
4063 HO1     3.710399   -9.357786   18.974362 H    626 MOH     0.4215 ****
4064 HC1    -3.892727   -8.835228   26.263219 H    627 MOH     0.0372 ****
4065 C1     -4.784156   -8.208567   26.231399 C    627 MOH     0.1166 ****
4066 HC2    -5.672698   -8.839310   26.191094 H    627 MOH     0.0372 ****
4067 HC3    -4.774918   -7.590479   25.333373 H    627 MOH     0.0372 ****
4068 O1     -4.773763   -7.361043   27.352870 O    627 MOH    -0.6497 ****
4069 HO1    -4.018012   -6.780922   27.236198 H    627 MOH     0.4215 ****
4070 HC1    -2.235731   -7.573332   24.849712 H    628 MOH     0.0372 ****
4071 C1     -2.011142   -6.507396   24.899917 C    628 MOH     0.1166 ****
4072 HC2    -2.370254   -5.959527   24.028761 H    628 MOH     0.0372 ****
4073 HC3    -0.925146   -6.460856   24.827792 H    628 MOH     0.0372 ****
4074 O1     -2.371986   -5.909312   26.166345 O    628 MOH    -0.6497 ****
4075 HO1    -2.444155   -4.960543   26.040480 H    628 MOH     0.4215 ****
4076 HC1    -3.149099  -21.024297   16.217353 H    629 MOH     0.0372 ****
4077 C1     -2.567708  -20.266996   16.744147 C    629 MOH     0.1166 ****
4078 HC2    -1.514044  -20.511129   16.606969 H    629 MOH     0.0372 ****
4079 HC3    -2.797493  -20.256382   17.809050 H    629 MOH     0.0372 ****
4080 O1     -2.695880  -19.006734   16.191897 O    629 MOH    -0.6497 ****
4081 HO1    -1.897404  -18.530308   16.433020 H    629 MOH     0.4215 ****
4082 HC1    -7.993646   -9.667238   21.299329 H    630 MOH     0.0372 ****
4083 C1     -7.648390  -10.510270   20.701824 C    630 MOH     0.1166 ****
4084 HC2    -6.908227  -11.042218   21.300743 H    630 MOH     0.0372 ****
4085 HC3    -7.206717  -10.124476   19.783292 H    630 MOH     0.0372 ****
4086 O1     -8.700900  -11.428013   20.368069 O    630 MOH    -0.6497 ****
4087 HO1    -8.422040  -11.941181   19.606515 H    630 MOH     0.4215 ****
4088 HC1    -0.836234   -1.129950   15.076789 H    631 MOH     0.0372 ****
4089 C1     -1.328714   -0.693532   14.207755 C    631 MOH     0.1166 ****
4090 HC2    -2.270950   -0.206084   14.458071 H    631 MOH     0.0372 ****
4091 HC3    -1.581016   -1.527992   13.552974 H    631 MOH     0.0372 ****
4092 O1     -0.490979    0.231559   13.507719 O    631 MOH    -0.6497 ****
4093 HO1    -1.031956    0.931296   13.135781 H    631 MOH     0.4215 ****
4094 HC1    -2.928552  -21.346813   11.554691 H    632 MOH     0.0372 ****
4095 C1     -2.961461  -20.261689   11.455696 C    632 MOH     0.1166 ****
4096 HC2    -2.516324  -19.792612   12.333215 H    632 MOH     0.0372 ****
4097 HC3    -3.998959  -19.935907   11.380742 H    632 MOH     0.0372 ****
4098 O1     -2.275568  -19.884468   10.290384 O    632 MOH    -0.6497 ****
4099 HO1    -2.173955  -18.931208   10.330689 H    632 MOH     0.4215 ****
4100 HC1     5.504804  -12.529875   12.737680 H    633 MOH     0.0372 ****
4101 C1      4.598941  -12.205317   12.226442 C    633 MOH     0.1166 ****
4102 HC2     3.713286  -12.598052   12.725659 H    633 MOH     0.0372 ****
4103 HC3     4.606447  -12.553553   11.193359 H    633 MOH     0.0372 ****
4104 O1      4.505988  -10.813191   12.240584 O    633 MOH    -0.6497 ****
4105 HO1     4.776188  -10.527825   13.116689 H    633 MOH     0.4215 ****
4106 HC1    -1.960913   -7.966067   14.722529 H    634 MOH     0.0372 ****
4107 C1     -1.297537   -8.787871   14.991937 C    634 MOH     0.1166 ****
4108 HC2    -0.281401   -8.401668   15.069718 H    634 MOH     0.0372 ****
4109 HC3    -1.311394   -9.570483   14.233211 H    634 MOH     0.0372 ****
4110 O1     -1.675702   -9.214899   16.278871 O    634 MOH    -0.6497 ****
4111 HO1    -1.622008   -8.445759   16.850213 H    634 MOH     0.4215 ****
4112 HC1     1.819000   -1.766817   18.825870 H    635 MOH     0.0372 ****
4113 C1      1.479518   -2.512686   18.106742 C    635 MOH     0.1166 ****
4114 HC2     0.973181   -3.350004   18.588282 H    635 MOH     0.0372 ****
4115 HC3     2.366328   -2.909504   17.611767 H    635 MOH     0.0372 ****
4116 O1      0.638318   -1.892149   17.152148 O    635 MOH    -0.6497 ****
4117 HO1     1.167748   -1.207108   16.736369 H    635 MOH     0.4215 ****
4118 HC1    -7.474608   -9.003018    9.844906 H    636 MOH     0.0372 ****
4119 C1     -8.105074   -9.316553   10.676464 C    636 MOH     0.1166 ****
4120 HC2    -9.081373   -9.629271   10.305940 H    636 MOH     0.0372 ****
4121 HC3    -8.275392   -8.489441   11.366600 H    636 MOH     0.0372 ****
4122 O1     -7.502898  -10.370650   11.372257 O    636 MOH    -0.6497 ****
4123 HO1    -8.153572  -10.725009   11.981783 H    636 MOH     0.4215 ****
4124 HC1    -4.812446   -4.270604   12.988703 H    637 MOH     0.0372 ****
4125 C1     -4.155998   -3.995036   13.813897 C    637 MOH     0.1166 ****
4126 HC2    -4.702749   -4.030962   14.757177 H    637 MOH     0.0372 ****
4127 HC3    -3.809588   -2.972374   13.663283 H    637 MOH     0.0372 ****
4128 O1     -3.037093   -4.867054   13.878950 O    637 MOH    -0.6497 ****
4129 HO1    -2.432030   -4.540456   14.549288 H    637 MOH     0.4215 ****
4130 HC1    -1.035998    0.444256   20.756271 H    638 MOH     0.0372 ****
4131 C1     -1.347767    0.025393   21.713694 C    638 MOH     0.1166 ****
4132 HC2    -1.874887    0.771671   22.306249 H    638 MOH     0.0372 ****
4133 HC3    -0.455183   -0.308146   22.241902 H    638 MOH     0.0372 ****
4134 O1     -2.162408   -1.088716   21.486712 O    638 MOH    -0.6497 ****
4135 HO1    -2.848300   -0.847442   20.860923 H    638 MOH     0.4215 ****
4136 HC1    -8.356222    5.838441   13.036786 H    639 MOH     0.0372 ****
4137 C1     -9.263816    6.218111   12.567267 C    639 MOH     0.1166 ****
4138 HC2    -9.133335    6.198107   11.484687 H    639 MOH     0.0372 ****
4139 HC3    -9.406999    7.248938   12.889001 H    639 MOH     0.0372 ****
4140 O1    -10.404083    5.424885   12.941327 O    639 MOH    -0.6497 ****
4141 HO1   -11.177155    5.929888   12.678990 H    639 MOH     0.4215 ****
4142 HC1   -15.474373  -14.338415   13.041736 H    640 MOH     0.0372 ****
4143 C1    -14.830627  -13.554170   12.645049 C    640 MOH     0.1166 ****
4144 HC2   -14.796564  -12.752778   13.382561 H    640 MOH     0.0372 ****
4145 HC3   -15.229576  -13.114078   11.730053 H    640 MOH     0.0372 ****
4146 O1    -13.518888  -14.018756   12.414532 O    640 MOH    -0.6497 ****
4147 HO1   -13.076637  -13.231654   12.089263 H    640 MOH     0.4215 ****
4148 HC1    -6.198664   -2.631487   19.548533 H    641 MOH     0.0372 ****
4149 C1     -5.616695   -2.388987   18.658992 C    641 MOH     0.1166 ****
4150 HC2    -5.653068   -3.210791   17.944107 H    641 MOH     0.0372 ****
4151 HC3    -4.589588   -2.245692   18.996282 H    641 MOH     0.0372 ****
4152 O1     -6.082616   -1.144646   18.127248 O    641 MOH    -0.6497 ****
4153 HO1    -5.666924   -0.467363   18.665356 H    641 MOH     0.4215 ****
4154 HC1    -8.704364   -7.197744   17.220030 H    642 MOH     0.0372 ****
4155 C1     -8.541551   -7.421872   18.274326 C    642 MOH     0.1166 ****
4156 HC2    -7.974016   -8.348596   18.366250 H    642 MOH     0.0372 ****
4157 HC3    -9.525356   -7.539448   18.728289 H    642 MOH     0.0372 ****
4158 O1     -7.848731   -6.345321   18.866175 O    642 MOH    -0.6497 ****
4159 HO1    -7.010418   -6.254690   18.407969 H    642 MOH     0.4215 ****
4160 HC1   -10.768968  -13.263905   21.979566 H    643 MOH     0.0372 ****
4161 C1    -11.162144  -12.829121   22.898097 C    643 MOH     0.1166 ****
4162 HC2   -11.346319  -11.764409   22.756676 H    643 MOH     0.0372 ****
4163 HC3   -10.462973  -12.973232   23.721877 H    643 MOH     0.0372 ****
4164 O1    -12.326659  -13.490075   23.226902 O    643 MOH    -0.6497 ****
4165 HO1   -12.751012  -13.040593   23.961586 H    643 MOH     0.4215 ****
4166 HC1    -6.795066  -16.577248    6.841824 H    644 MOH     0.0372 ****
4167 C1     -7.531765  -16.231462    7.566608 C    644 MOH     0.1166 ****
4168 HC2    -7.802543  -17.039385    8.247552 H    644 MOH     0.0372 ****
4169 HC3    -8.440515  -15.931808    7.046178 H    644 MOH     0.0372 ****
4170 O1     -7.091824  -15.150012    8.360689 O    644 MOH    -0.6497 ****
4171 HO1    -6.144393  -15.218598    8.496454 H    644 MOH     0.4215 ****
4172 HC1    -5.846480   -0.021964    7.193963 H    645 MOH     0.0372 ****
4173 C1     -6.694030   -0.686592    7.363669 C    645 MOH     0.1166 ****
4174 HC2    -7.559478   -0.042784    7.519939 H    645 MOH     0.0372 ****
4175 HC3    -6.461358   -1.288350    8.241895 H    645 MOH     0.0372 ****
4176 O1     -6.827398   -1.388371    6.148152 O    645 MOH    -0.6497 ****
4177 HO1    -5.981580   -1.794170    5.943091 H    645 MOH     0.4215 ****
4178 HC1    -7.957850  -18.827921   12.604037 H    646 MOH     0.0372 ****
4179 C1     -6.922661  -18.523776   12.447766 C    646 MOH     0.1166 ****
4180 HC2    -6.333764  -19.426413   12.280182 H    646 MOH     0.0372 ****
4181 HC3    -6.549693  -17.966926   13.306194 H    646 MOH     0.0372 ****
4182 O1     -6.924970  -17.792195   11.271141 O    646 MOH    -0.6497 ****
4183 HO1    -6.287575  -17.083068   11.380742 H    646 MOH     0.4215 ****
4184 HC1     5.104700  -13.635819   17.174775 H    647 MOH     0.0372 ****
4185 C1      5.488638  -13.038960   16.347460 C    647 MOH     0.1166 ****
4186 HC2     6.176262  -13.656232   15.769047 H    647 MOH     0.0372 ****
4187 HC3     5.989778  -12.177148   16.789402 H    647 MOH     0.0372 ****
4188 O1      4.423427  -12.599277   15.560451 O    647 MOH    -0.6497 ****
4189 HO1     3.893996  -13.355353   15.298821 H    647 MOH     0.4215 ****
4190 HC1    -4.429085   -4.639660   21.775212 H    648 MOH     0.0372 ****
4191 C1     -4.365577   -5.562709   21.198920 C    648 MOH     0.1166 ****
4192 HC2    -3.333852   -5.766834   20.913249 H    648 MOH     0.0372 ****
4193 HC3    -4.982764   -5.450849   20.307965 H    648 MOH     0.0372 ****
4194 O1     -4.883460   -6.615990   21.964009 O    648 MOH    -0.6497 ****
4195 HO1    -4.633467   -7.440652   21.539745 H    648 MOH     0.4215 ****
4196 HC1    -9.816918    0.983960   10.443826 H    649 MOH     0.0372 ****
4197 C1     -8.945696    0.328722   10.424734 C    649 MOH     0.1166 ****
4198 HC2    -8.946273   -0.242826    9.497010 H    649 MOH     0.0372 ****
4199 HC3    -8.973409   -0.380406   11.252756 H    649 MOH     0.0372 ****
4200 O1     -7.767324    1.113375   10.498273 O    649 MOH    -0.6497 ****
4201 HO1    -7.796769    1.624093   11.310739 H    649 MOH     0.4215 ****
4202 HC1     4.996735   -8.179173   15.910468 H    650 MOH     0.0372 ****
4203 C1      5.637017   -9.054457   16.019363 C    650 MOH     0.1166 ****
4204 HC2     5.486906   -9.455357   17.022040 H    650 MOH     0.0372 ****
4205 HC3     6.675670   -8.741739   15.913297 H    650 MOH     0.0372 ****
4206 O1      5.257698   -9.996286   15.015978 O    650 MOH    -0.6497 ****
4207 HO1     5.186684  -10.869529   15.408423 H    650 MOH     0.4215 ****
4208 HC1     3.132471   -5.965650   20.331300 H    651 MOH     0.0372 ****
4209 C1      3.990991   -5.603943   19.765615 C    651 MOH     0.1166 ****
4210 HC2     3.642849   -5.084651   18.873246 H    651 MOH     0.0372 ****
4211 HC3     4.620303   -6.444526   19.472165 H    651 MOH     0.0372 ****
4212 O1      4.740392   -4.714369   20.561110 O    651 MOH    -0.6497 ****
4213 HO1     4.907823   -5.132824   21.408931 H    651 MOH     0.4215 ****
4214 HC1     3.931524   -4.644559   10.399278 H    652 MOH     0.0372 ****
4215 C1      3.484655   -4.230595    9.495596 C    652 MOH     0.1166 ****
4216 HC2     2.456972   -3.911753    9.667423 H    652 MOH     0.0372 ****
4217 HC3     3.515255   -5.003001    8.726263 H    652 MOH     0.0372 ****
4218 O1      4.295255   -3.166292    9.107394 O    652 MOH    -0.6497 ****
4219 HO1     4.477120   -2.620056    9.875312 H    652 MOH     0.4215 ****
4220 HC1    -2.842526   -6.896865    4.993447 H    653 MOH     0.0372 ****
4221 C1     -3.766864   -6.381656    4.731817 C    653 MOH     0.1166 ****
4222 HC2    -4.479892   -6.428604    5.555597 H    653 MOH     0.0372 ****
4223 HC3    -4.202764   -6.827871    3.838741 H    653 MOH     0.0372 ****
4224 O1     -3.528996   -5.032395    4.452510 O    653 MOH    -0.6497 ****
4225 HO1    -3.024392   -5.002185    3.636509 H    653 MOH     0.4215 ****
4226 HC1   -11.120575    0.296470   15.045677 H    654 MOH     0.0372 ****
4227 C1    -11.491233   -0.100347   15.990371 C    654 MOH     0.1166 ****
4228 HC2   -10.636755   -0.223230   16.655759 H    654 MOH     0.0372 ****
4229 HC3   -11.962929   -1.076061   15.874406 H    654 MOH     0.0372 ****
4230 O1    -12.346289    0.834950   16.552521 O    654 MOH    -0.6497 ****
4231 HO1   -12.161537    0.836583   17.494387 H    654 MOH     0.4215 ****
4232 HC1   -12.583003  -17.116544    5.532969 H    655 MOH     0.0372 ****
4233 C1    -12.069161  -16.807500    6.443016 C    655 MOH     0.1166 ****
4234 HC2   -10.986052  -16.833628    6.327050 H    655 MOH     0.0372 ****
4235 HC3   -12.372270  -17.446817    7.273159 H    655 MOH     0.0372 ****
4236 O1    -12.508525  -15.550096    6.725858 O    655 MOH    -0.6497 ****
4237 HO1   -12.840501  -15.187979    5.900665 H    655 MOH     0.4215 ****
4238 HC1   -11.832448   -4.378381   20.783848 H    656 MOH     0.0372 ****
4239 C1    -11.898843   -4.638844   21.840266 C    656 MOH     0.1166 ****
4240 HC2   -11.790878   -5.717027   21.964009 H    656 MOH     0.0372 ****
4241 HC3   -12.882648   -4.324084   22.188869 H    656 MOH     0.0372 ****
4242 O1    -10.915038   -3.919918   22.563636 O    656 MOH    -0.6497 ****
4243 HO1   -10.092314   -4.028921   22.080682 H    656 MOH     0.4215 ****
4244 HC1    -4.285902   -1.817440   25.632479 H    657 MOH     0.0372 ****
4245 C1     -3.848271   -2.720893   25.207508 C    657 MOH     0.1166 ****
4246 HC2    -3.604629   -2.525750   24.163819 H    657 MOH     0.0372 ****
4247 HC3    -4.553793   -3.547188   25.300846 H    657 MOH     0.0372 ****
4248 O1     -2.712045   -3.018506   25.954920 O    657 MOH    -0.6497 ****
4249 HO1    -2.084466   -2.292641   25.906837 H    657 MOH     0.4215 ****
4250 HC1    -7.505785   -9.015265   24.999619 H    658 MOH     0.0372 ****
4251 C1     -7.916281   -9.971791   25.322767 C    658 MOH     0.1166 ****
4252 HC2    -7.137435  -10.734399   25.343980 H    658 MOH     0.0372 ****
4253 HC3    -8.701477  -10.250625   24.620610 H    658 MOH     0.0372 ****
4254 O1     -8.512106   -9.827271   26.578588 O    658 MOH    -0.6497 ****
4255 HO1    -7.891455   -9.378198   27.157002 H    658 MOH     0.4215 ****
4256 HC1   -11.122884    1.710234   11.970469 H    659 MOH     0.0372 ****
4257 C1    -10.556503    2.015195   12.850817 C    659 MOH     0.1166 ****
4258 HC2   -10.170833    1.121540   13.342256 H    659 MOH     0.0372 ****
4259 HC3   -11.210641    2.538978   13.547317 H    659 MOH     0.0372 ****
4260 O1     -9.461847    2.829651   12.445645 O    659 MOH    -0.6497 ****
4261 HO1    -9.812876    3.704935   12.268868 H    659 MOH     0.4215 ****
4262 HC1   -10.731440  -13.907713    9.266493 H    660 MOH     0.0372 ****
4263 C1    -11.613632  -13.324326    9.527415 C    660 MOH     0.1166 ****
4264 HC2   -11.309368  -12.325751    9.838542 H    660 MOH     0.0372 ****
4265 HC3   -12.148835  -13.814224   10.340588 H    660 MOH     0.0372 ****
4266 O1    -12.434624  -13.269212    8.359982 O    660 MOH    -0.6497 ****
4267 HO1   -12.525268  -14.157969    8.007136 H    660 MOH     0.4215 ****
4268 HC1    -3.194710  -22.900198   14.717579 H    661 MOH     0.0372 ****
4269 C1     -2.356975  -22.671987   14.057849 C    661 MOH     0.1166 ****
4270 HC2    -1.999595  -21.670554   14.293315 H    661 MOH     0.0372 ****
4271 HC3    -2.707426  -22.716894   13.026887 H    661 MOH     0.0372 ****
4272 O1     -1.276175  -23.613816   14.262203 O    661 MOH    -0.6497 ****
4273 HO1    -0.443059  -23.225572   13.984310 H    661 MOH     0.4215 ****
4274 HC1    -9.001122  -12.044876   14.332913 H    662 MOH     0.0372 ****
4275 C1     -9.312891  -11.001393   14.297558 C    662 MOH     0.1166 ****
4276 HC2    -8.506910  -10.344113   14.625655 H    662 MOH     0.0372 ****
4277 HC3   -10.155822  -10.878102   14.976380 H    662 MOH     0.0372 ****
4278 O1     -9.766111  -10.655199   13.003552 O    662 MOH    -0.6497 ****
4279 HO1    -9.977421   -9.719494   13.033251 H    662 MOH     0.4215 ****
4280 HC1    -2.305013   -4.031370   21.830366 H    663 MOH     0.0372 ****
4281 C1     -1.379521   -3.731716   22.323927 C    663 MOH     0.1166 ****
4282 HC2    -0.935539   -4.585771   22.835872 H    663 MOH     0.0372 ****
4283 HC3    -1.625472   -2.979722   23.073460 H    663 MOH     0.0372 ****
4284 O1     -0.497330   -3.232428   21.297915 O    663 MOH    -0.6497 ****
4285 HO1    -0.687855   -2.294274   21.222962 H    663 MOH     0.4215 ****
4286 HC1   -13.275823  -12.874028   15.149621 H    664 MOH     0.0372 ****
4287 C1    -12.504483  -13.167150   15.862385 C    664 MOH     0.1166 ****
4288 HC2   -11.606704  -13.423530   15.299528 H    664 MOH     0.0372 ****
4289 HC3   -12.834728  -14.055499   16.401200 H    664 MOH     0.0372 ****
4290 O1    -12.244098  -12.089783   16.771017 O    664 MOH    -0.6497 ****
4291 HO1   -12.910360  -12.114686   17.461860 H    664 MOH     0.4215 ****
4292 HC1   -13.405150  -12.263289   21.032750 H    665 MOH     0.0372 ****
4293 C1    -12.921908  -12.413932   20.067549 C    665 MOH     0.1166 ****
4294 HC2   -12.466378  -13.403526   20.047750 H    665 MOH     0.0372 ****
4295 HC3   -12.161537  -11.644792   19.928956 H    665 MOH     0.0372 ****
4296 O1    -13.953055  -12.364534   19.081135 O    665 MOH    -0.6497 ****
4297 HO1   -14.465742  -11.563551   19.211243 H    665 MOH     0.4215 ****
4298 HC1   -17.705254  -10.835644   14.699194 H    666 MOH     0.0372 ****
4299 C1    -17.117512   -9.919943   14.760713 C    666 MOH     0.1166 ****
4300 HC2   -16.651590   -9.709287   13.797633 H    666 MOH     0.0372 ****
4301 HC3   -16.328851  -10.068546   15.497518 H    666 MOH     0.0372 ****
4302 O1    -17.899244   -8.795219   15.136186 O    666 MOH    -0.6497 ****
4303 HO1   -18.299348   -8.959335   15.993200 H    666 MOH     0.4215 ****
4304 HC1    -3.888108   -0.162401   17.178311 H    667 MOH     0.0372 ****
4305 C1     -2.942408    0.180528   17.598332 C    667 MOH     0.1166 ****
4306 HC2    -3.056146    1.155016   18.074215 H    667 MOH     0.0372 ****
4307 HC3    -2.212637    0.294021   16.796473 H    667 MOH     0.0372 ****
4308 O1     -2.500735   -0.741705   18.570604 O    667 MOH    -0.6497 ****
4309 HO1    -1.669351   -1.129949   18.288468 H    667 MOH     0.4215 ****
4310 HC1    -3.970092   -8.228163   12.249069 H    668 MOH     0.0372 ****
4311 C1     -3.188359   -7.554961   11.897637 C    668 MOH     0.1166 ****
4312 HC2    -2.628907   -7.989746   11.069615 H    668 MOH     0.0372 ****
4313 HC3    -2.503044   -7.350020   12.719295 H    668 MOH     0.0372 ****
4314 O1     -3.762245   -6.355528   11.452160 O    668 MOH    -0.6497 ****
4315 HO1    -3.567101   -5.712128   12.138054 H    668 MOH     0.4215 ****
4316 HC1     0.929765   14.512737   12.520598 H    669 MOH     0.0372 ****
4317 C1     -0.106579   14.651541   12.827483 C    669 MOH     0.1166 ****
4318 HC2    -0.670073   15.015699   11.969055 H    669 MOH     0.0372 ****
4319 HC3    -0.176438   15.401493   13.615907 H    669 MOH     0.0372 ****
4320 O1     -0.631968   13.408834   13.244676 O    669 MOH    -0.6497 ****
4321 HO1    -1.394647   13.561110   13.806825 H    669 MOH     0.4215 ****
4322 HC1    -4.571806    3.971766   16.611918 H    670 MOH     0.0372 ****
4323 C1     -5.372591    3.577806   17.237708 C    670 MOH     0.1166 ****
4324 HC2    -5.938394    2.847450   16.658587 H    670 MOH     0.0372 ****
4325 HC3    -6.045204    4.354703   17.599039 H    670 MOH     0.0372 ****
4326 O1     -4.875492    2.836836   18.282104 O    670 MOH    -0.6497 ****
4327 HO1    -4.331051    3.432878   18.801121 H    670 MOH     0.4215 ****
4328 HC1     7.537539    5.210800   21.118310 H    671 MOH     0.0372 ****
4329 C1      7.598738    5.990554   21.876328 C    671 MOH     0.1166 ****
4330 HC2     7.959004    5.544747   22.804052 H    671 MOH     0.0372 ****
4331 HC3     6.605695    6.415949   22.021992 H    671 MOH     0.0372 ****
4332 O1      8.469959    7.013216   21.448529 O    671 MOH    -0.6497 ****
4333 HO1     9.356769    6.653141   21.382061 H    671 MOH     0.4215 ****
4334 HC1    13.796015    9.959952   15.337712 H    672 MOH     0.0372 ****
4335 C1     14.229606   10.153053   16.318469 C    672 MOH     0.1166 ****
4336 HC2    14.515394   11.203885   16.369381 H    672 MOH     0.0372 ****
4337 HC3    15.117570    9.533741   16.445041 H    672 MOH     0.0372 ****
4338 O1     13.275246    9.838294   17.326096 O    672 MOH    -0.6497 ****
4339 HO1    13.476163    8.946680   17.618838 H    672 MOH     0.4215 ****
4340 HC1     7.158797   -0.893737    7.705201 H    673 MOH     0.0372 ****
4341 C1      6.971735   -1.879657    8.130172 C    673 MOH     0.1166 ****
4342 HC2     6.579715   -1.784943    9.142749 H    673 MOH     0.0372 ****
4343 HC3     7.928982   -2.396091    8.198762 H    673 MOH     0.0372 ****
4344 O1      6.130536   -2.683498    7.280937 O    673 MOH    -0.6497 ****
4345 HO1     5.414622   -3.029692    7.818338 H    673 MOH     0.4215 ****
4346 HC1     9.789205   -0.421802   14.342106 H    674 MOH     0.0372 ****
4347 C1      8.940500    0.012982   14.870314 C    674 MOH     0.1166 ****
4348 HC2     8.804245    1.040135   14.532317 H    674 MOH     0.0372 ****
4349 HC3     9.105045    0.000735   15.947945 H    674 MOH     0.0372 ****
4350 O1      7.774830   -0.685122   14.536560 O    674 MOH    -0.6497 ****
4351 HO1     7.801965   -1.485697   15.066183 H    674 MOH     0.4215 ****
4352 HC1    17.865758    8.348596   10.722426 H    675 MOH     0.0372 ****
4353 C1     17.671191    9.089975   11.497415 C    675 MOH     0.1166 ****
4354 HC2    16.607134    9.132024   11.730053 H    675 MOH     0.0372 ****
4355 HC3    17.972567   10.078344   11.150226 H    675 MOH     0.0372 ****
4356 O1     18.340917    8.759702   12.708689 O    675 MOH    -0.6497 ****
4357 HO1    18.123256    7.865230   12.980925 H    675 MOH     0.4215 ****
4358 HC1     1.979388   13.061414   17.189624 H    676 MOH     0.0372 ****
4359 C1      2.583296   13.612958   17.910166 C    676 MOH     0.1166 ****
4360 HC2     3.395050   12.977723   18.263720 H    676 MOH     0.0372 ****
4361 HC3     1.934932   13.898732   18.738895 H    676 MOH     0.0372 ****
4362 O1      3.087900   14.736865   17.254678 O    676 MOH    -0.6497 ****
4363 HO1     3.900809   14.998552   17.693792 H    676 MOH     0.4215 ****
4364 HC1     9.379863   14.544988    3.608932 H    677 MOH     0.0372 ****
4365 C1      9.917376   14.887509    2.724341 C    677 MOH     0.1166 ****
4366 HC2     9.589442   14.313512    1.857428 H    677 MOH     0.0372 ****
4367 HC3    10.976814   14.702981    2.902532 H    677 MOH     0.0372 ****
4368 O1      9.656992   16.268204    2.455640 O    677 MOH    -0.6497 ****
4369 HO1     9.916222   16.473145    1.554786 H    677 MOH     0.4215 ****
4370 HC1     0.041223    7.739898   21.574394 H    678 MOH     0.0372 ****
4371 C1     -0.978955    7.447184   21.822588 C    678 MOH     0.1166 ****
4372 HC2    -1.140036    7.504747   22.898097 H    678 MOH     0.0372 ****
4373 HC3    -1.187379    6.424930   21.505804 H    678 MOH     0.0372 ****
4374 O1     -1.865188    8.339615   21.221547 O    678 MOH    -0.6497 ****
4375 HO1    -1.413700    8.716019   20.462115 H    678 MOH     0.4215 ****
4376 HC1    12.748702   12.712770   12.251191 H    679 MOH     0.0372 ****
4377 C1     12.797200   11.625197   12.200279 C    679 MOH     0.1166 ****
4378 HC2    12.419035   11.270429   11.242149 H    679 MOH     0.0372 ****
4379 HC3    12.190404   11.178573   12.987996 H    679 MOH     0.0372 ****
4380 O1     14.133765   11.190821   12.273818 O    679 MOH    -0.6497 ****
4381 HO1    14.101434   10.231437   12.295031 H    679 MOH     0.4215 ****
4382 HC1     3.838455   11.688067    6.677775 H    680 MOH     0.0372 ****
4383 C1      3.884066   11.233278    5.687825 C    680 MOH     0.1166 ****
4384 HC2     4.801476   10.654382    5.578931 H    680 MOH     0.0372 ****
4385 HC3     3.873674   12.010991    4.924857 H    680 MOH     0.0372 ****
4386 O1      2.780750   10.396778    5.470744 O    680 MOH    -0.6497 ****
4387 HO1     3.039980    9.509246    5.728131 H    680 MOH     0.4215 ****
4388 HC1    -5.359889   10.526601   17.778644 H    681 MOH     0.0372 ****
4389 C1     -4.319504   10.553953   17.452668 C    681 MOH     0.1166 ****
4390 HC2    -3.735225    9.914228   18.115227 H    681 MOH     0.0372 ****
4391 HC3    -3.978290   11.587638   17.506408 H    681 MOH     0.0372 ****
4392 O1     -4.252531   10.071812   16.129671 O    681 MOH    -0.6497 ****
4393 HO1    -4.847202    9.319002   16.085831 H    681 MOH     0.4215 ****
4394 HC1    -2.479489    5.844401   13.618735 H    682 MOH     0.0372 ****
4395 C1     -1.564966    6.150587   13.111032 C    682 MOH     0.1166 ****
4396 HC2    -0.969718    6.805009   13.748136 H    682 MOH     0.0372 ****
4397 HC3    -1.840362    6.696823   12.208764 H    682 MOH     0.0372 ****
4398 O1     -0.862908    5.011166   12.712931 O    682 MOH    -0.6497 ****
4399 HO1     0.071822    5.209983   12.802734 H    682 MOH     0.4215 ****
4400 HC1    -5.533671    5.506780    8.763033 H    683 MOH     0.0372 ****
4401 C1     -5.490948    5.748463    9.825107 C    683 MOH     0.1166 ****
4402 HC2    -4.454026    5.686409   10.156033 H    683 MOH     0.0372 ****
4403 HC3    -6.088505    5.046684   10.407056 H    683 MOH     0.0372 ****
4404 O1     -5.924538    7.042201   10.094515 O    683 MOH    -0.6497 ****
4405 HO1    -6.694146    7.233670    9.553578 H    683 MOH     0.4215 ****
4406 HC1    -8.136944    9.444334   16.478275 H    684 MOH     0.0372 ****
4407 C1     -8.571689    8.558844   16.941430 C    684 MOH     0.1166 ****
4408 HC2    -8.983917    7.884009   16.191190 H    684 MOH     0.0372 ****
4409 HC3    -9.393835    8.845026   17.598332 H    684 MOH     0.0372 ****
4410 O1     -7.666403    7.856249   17.736925 O    684 MOH    -0.6497 ****
4411 HO1    -8.192947    7.138548   18.097549 H    684 MOH     0.4215 ****
4412 HC1    17.544751   10.378406   14.504033 H    685 MOH     0.0372 ****
4413 C1     17.627312   11.318194   15.049919 C    685 MOH     0.1166 ****
4414 HC2    16.800546   11.973841   14.776976 H    685 MOH     0.0372 ****
4415 HC3    18.584559   11.780331   14.805260 H    685 MOH     0.0372 ****
4416 O1     17.586320   10.960160   16.391301 O    685 MOH    -0.6497 ****
4417 HO1    17.810332   11.703172   16.955572 H    685 MOH     0.4215 ****
4418 HC1     5.452149   15.002635   14.247353 H    686 MOH     0.0372 ****
4419 C1      4.786465   15.861589   14.332206 C    686 MOH     0.1166 ****
4420 HC2     3.744347   15.541523   14.325135 H    686 MOH     0.0372 ****
4421 HC3     4.921565   16.486209   13.449737 H    686 MOH     0.0372 ****
4422 O1      5.012208   16.658490   15.535702 O    686 MOH    -0.6497 ****
4423 HO1     4.939462   16.091433   16.305741 H    686 MOH     0.4215 ****
4424 HC1     5.526627    4.348579   23.197204 H    687 MOH     0.0372 ****
4425 C1      5.826272    3.301422   23.182354 C    687 MOH     0.1166 ****
4426 HC2     6.460203    3.112812   22.315442 H    687 MOH     0.0372 ****
4427 HC3     4.958515    2.647409   23.103158 H    687 MOH     0.0372 ****
4428 O1      6.531217    2.990337   24.375951 O    687 MOH    -0.6497 ****
4429 HO1     6.965384    2.141997   24.257157 H    687 MOH     0.4215 ****
4430 HC1    -2.224300    7.616199    9.149820 H    688 MOH     0.0372 ****
4431 C1     -2.764700    8.485767    8.776468 C    688 MOH     0.1166 ****
4432 HC2    -3.208105    8.156311    7.836723 H    688 MOH     0.0372 ****
4433 HC3    -2.041857    9.288792    8.630097 H    688 MOH     0.0372 ****
4434 O1     -3.756010    8.824205    9.769953 O    688 MOH    -0.6497 ****
4435 HO1    -4.391673    8.110179    9.852684 H    688 MOH     0.4215 ****
4436 HC1    12.332433   -0.999065   10.789601 H    689 MOH     0.0372 ****
4437 C1     11.652314   -1.567755   11.423876 C    689 MOH     0.1166 ****
4438 HC2    12.006807   -1.530604   12.454130 H    689 MOH     0.0372 ****
4439 HC3    11.597466   -2.604297   11.092243 H    689 MOH     0.0372 ****
4440 O1     10.419671   -0.944768   11.341851 O    689 MOH    -0.6497 ****
4441 HO1    10.521862   -0.051929   11.677727 H    689 MOH     0.4215 ****
4442 HC1     2.392770   19.256582   16.981028 H    690 MOH     0.0372 ****
4443 C1      1.938396   19.554603   16.036333 C    690 MOH     0.1166 ****
4444 HC2     0.857596   19.419881   16.084416 H    690 MOH     0.0372 ****
4445 HC3     2.361016   18.929983   15.248616 H    690 MOH     0.0372 ****
4446 O1      2.220143   20.912029   15.776825 O    690 MOH    -0.6497 ****
4447 HO1     1.950520   21.106355   14.875971 H    690 MOH     0.4215 ****
4448 HC1     3.433733   22.170250   20.104318 H    691 MOH     0.0372 ****
4449 C1      3.091941   21.500723   19.315187 C    691 MOH     0.1166 ****
4450 HC2     2.593688   20.624622   19.730966 H    691 MOH     0.0372 ****
4451 HC3     3.964318   21.182698   18.744552 H    691 MOH     0.0372 ****
4452 O1      2.310787   22.230671   18.393120 O    691 MOH    -0.6497 ****
4453 HO1     2.337922   21.743631   17.566512 H    691 MOH     0.4215 ****
4454 HC1     6.200395    5.464322   15.773290 H    692 MOH     0.0372 ****
4455 C1      6.060099    5.310004   14.704144 C    692 MOH     0.1166 ****
4456 HC2     5.863800    6.264488   14.214826 H    692 MOH     0.0372 ****
4457 HC3     5.225828    4.631087   14.528075 H    692 MOH     0.0372 ****
4458 O1      7.235584    4.755603   14.152601 O    692 MOH    -0.6497 ****
4459 HO1     7.882217    4.654765   14.854758 H    692 MOH     0.4215 ****
4460 HC1     8.963594   13.500689   17.063759 H    693 MOH     0.0372 ****
4461 C1      9.446259   12.534774   16.916681 C    693 MOH     0.1166 ****
4462 HC2     8.673187   11.780739   16.768896 H    693 MOH     0.0372 ****
4463 HC3    10.010907   12.292274   17.816121 H    693 MOH     0.0372 ****
4464 O1     10.354431   12.562535   15.793796 O    693 MOH    -0.6497 ****
4465 HO1    11.065726   13.166742   16.022898 H    693 MOH     0.4215 ****
4466 HC1     3.656590    5.258156    8.404530 H    694 MOH     0.0372 ****
4467 C1      3.495509    4.245292    8.772932 C    694 MOH     0.1166 ****
4468 HC2     2.744377    4.290200    9.560649 H    694 MOH     0.0372 ****
4469 HC3     4.420425    3.844801    9.188004 H    694 MOH     0.0372 ****
4470 O1      3.044021    3.398585    7.716515 O    694 MOH    -0.6497 ****
4471 HO1     3.448744    2.540448    7.866422 H    694 MOH     0.4215 ****
4472 HC1    12.662100   -0.624701   16.018656 H    695 MOH     0.0372 ****
4473 C1     12.495823   -0.537745   17.092751 C    695 MOH     0.1166 ****
4474 HC2    12.567991    0.518394   17.352259 H    695 MOH     0.0372 ****
4475 HC3    13.282751   -1.091737   17.605403 H    695 MOH     0.0372 ****
4476 O1     11.170226   -1.056628   17.326803 O    695 MOH    -0.6497 ****
4477 HO1    10.859035   -0.707984   18.165432 H    695 MOH     0.4215 ****
4478 HC1     7.457864   18.302098    8.191691 H    696 MOH     0.0372 ****
4479 C1      6.877050   18.683401    9.031733 C    696 MOH     0.1166 ****
4480 HC2     7.174385   19.690550    9.323769 H    696 MOH     0.0372 ****
4481 HC3     7.084896   18.028163    9.878140 H    696 MOH     0.0372 ****
4482 O1      5.497760   18.639719    8.746769 O    696 MOH    -0.6497 ****
4483 HO1     5.092460   17.964884    9.296191 H    696 MOH     0.4215 ****
4484 HC1    -3.964434    7.945247   19.217607 H    697 MOH     0.0372 ****
4485 C1     -4.355877    7.176107   18.552926 C    697 MOH     0.1166 ****
4486 HC2    -3.856469    7.209992   17.584897 H    697 MOH     0.0372 ****
4487 HC3    -5.427439    7.338590   18.428475 H    697 MOH     0.0372 ****
4488 O1     -4.215004    5.909312   19.137704 O    697 MOH    -0.6497 ****
4489 HO1    -4.661295    5.908904   19.986939 H    697 MOH     0.4215 ****
4490 HC1    12.255645    5.513312   14.837080 H    698 MOH     0.0372 ****
4491 C1     12.238902    4.506163   14.419180 C    698 MOH     0.1166 ****
4492 HC2    12.740619    3.847659   15.126994 H    698 MOH     0.0372 ****
4493 HC3    12.790271    4.477586   13.478728 H    698 MOH     0.0372 ****
4494 O1     10.895985    4.070562   14.269981 O    698 MOH    -0.6497 ****
4495 HO1    10.404083    4.331433   15.052748 H    698 MOH     0.4215 ****
4496 HC1     6.390344    9.304305   13.968753 H    699 MOH     0.0372 ****
4497 C1      5.326864    9.505163   13.837231 C    699 MOH     0.1166 ****
4498 HC2     4.744895    8.584155   13.864101 H    699 MOH     0.0372 ****
4499 HC3     5.161742    9.975874   12.867788 H    699 MOH     0.0372 ****
4500 O1      4.876531   10.395553   14.816574 O    699 MOH    -0.6497 ****
4501 HO1     4.986805   11.290025   14.486355 H    699 MOH     0.4215 ****
4502 HC1    10.103283   12.231854   11.172146 H    700 MOH     0.0372 ****
4503 C1      9.699138   12.577640   10.221087 C    700 MOH     0.1166 ****
4504 HC2     8.766140   12.054266   10.008955 H    700 MOH     0.0372 ****
4505 HC3    10.420249   12.432712    9.417107 H    700 MOH     0.0372 ****
4506 O1      9.452609   13.943639   10.375236 O    700 MOH    -0.6497 ****
4507 HO1    10.277066   14.399244   10.563327 H    700 MOH     0.4215 ****
4508 HC1     5.870728    0.976040   16.375745 H    701 MOH     0.0372 ****
4509 C1      5.684822    1.561876   15.475598 C    701 MOH     0.1166 ****
4510 HC2     5.702719    0.938073   14.581815 H    701 MOH     0.0372 ****
4511 HC3     6.432490    2.347346   15.366703 H    701 MOH     0.0372 ****
4512 O1      4.442364    2.150162   15.604998 O    701 MOH    -0.6497 ****
4513 HO1     4.143874    2.260797   14.699194 H    701 MOH     0.4215 ****
4514 HC1     7.055451    4.551070   17.794908 H    702 MOH     0.0372 ****
4515 C1      7.809471    3.797444   17.567219 C    702 MOH     0.1166 ****
4516 HC2     7.323342    2.907871   17.167704 H    702 MOH     0.0372 ****
4517 HC3     8.298486    3.507996   18.497065 H    702 MOH     0.0372 ****
4518 O1      8.743623    4.339598   16.622525 O    702 MOH    -0.6497 ****
4519 HO1     8.960130    5.237336   16.882033 H    702 MOH     0.4215 ****
4520 HC1     5.300884   12.903830    8.708586 H    703 MOH     0.0372 ****
4521 C1      5.063593   12.617240    9.733890 C    703 MOH     0.1166 ****
4522 HC2     5.825695   11.954653   10.143305 H    703 MOH     0.0372 ****
4523 HC3     4.110387   12.088559    9.714799 H    703 MOH     0.0372 ****
4524 O1      4.961979   13.743597   10.571812 O    703 MOH    -0.6497 ****
4525 HO1     5.735628   14.300040   10.452311 H    703 MOH     0.4215 ****
4526 HC1     2.992060   -2.078474   15.060526 H    704 MOH     0.0372 ****
4527 C1      2.585028   -1.077857   14.915569 C    704 MOH     0.1166 ****
4528 HC2     1.539447   -1.123581   14.610099 H    704 MOH     0.0372 ****
4529 HC3     3.141594   -0.620211   14.098861 H    704 MOH     0.0372 ****
4530 O1      2.739758   -0.254012   16.072396 O    704 MOH    -0.6497 ****
4531 HO1     3.022659    0.626171   15.812180 H    704 MOH     0.4215 ****
4532 HC1     2.397966    2.326934   17.282963 H    705 MOH     0.0372 ****
4533 C1      2.486301    3.312853   17.739046 C    705 MOH     0.1166 ****
4534 HC2     1.885279    3.344697   18.646972 H    705 MOH     0.0372 ****
4535 HC3     2.134117    4.048109   17.015676 H    705 MOH     0.0372 ****
4536 O1      3.826331    3.516569   18.046638 O    705 MOH    -0.6497 ****
4537 HO1     4.311305    3.049941   17.362866 H    705 MOH     0.4215 ****
4538 HC1    12.342825   14.119186    9.505495 H    706 MOH     0.0372 ****
4539 C1     12.763136   15.002635    9.986328 C    706 MOH     0.1166 ****
4540 HC2    13.016593   15.744422    9.229016 H    706 MOH     0.0372 ****
4541 HC3    13.649946   14.719719   10.552720 H    706 MOH     0.0372 ****
4542 O1     11.757969   15.499065   10.809400 O    706 MOH    -0.6497 ****
4543 HO1    12.114194   15.695432   11.678434 H    706 MOH     0.4215 ****
4544 HC1     6.694030   16.427013   22.081389 H    707 MOH     0.0372 ****
4545 C1      6.651306   17.301073   21.431558 C    707 MOH     0.1166 ****
4546 HC2     7.452091   18.001219   21.669853 H    707 MOH     0.0372 ****
4547 HC3     5.711957   17.817099   21.626719 H    707 MOH     0.0372 ****
4548 O1      6.651883   16.946713   20.039972 O    707 MOH    -0.6497 ****
4549 HO1     6.761002   17.739123   19.508935 H    707 MOH     0.4215 ****
4550 HC1     4.361535   -2.510400   18.096842 H    708 MOH     0.0372 ****
4551 C1      5.437716   -2.502235   17.927137 C    708 MOH     0.1166 ****
4552 HC2     5.858027   -1.642056   18.446860 H    708 MOH     0.0372 ****
4553 HC3     5.641520   -2.441815   16.857991 H    708 MOH     0.0372 ****
4554 O1      6.031232   -3.646964   18.427768 O    708 MOH    -0.6497 ****
4555 HO1     5.569351   -3.908242   19.226799 H    708 MOH     0.4215 ****
4556 HC1     1.007707   12.157553   10.695556 H    709 MOH     0.0372 ****
4557 C1      0.425161   11.284718   10.991126 C    709 MOH     0.1166 ****
4558 HC2     0.761178   10.369833   10.503930 H    709 MOH     0.0372 ****
4559 HC3    -0.595017   11.464755   10.653836 H    709 MOH     0.0372 ****
4560 O1      0.418232   11.137748   12.394026 O    709 MOH    -0.6497 ****
4561 HO1     0.231748   11.999560   12.775157 H    709 MOH     0.4215 ****
4562 HC1     0.176900    9.143047   14.966481 H    710 MOH     0.0372 ****
4563 C1      1.208625    8.859315   14.760713 C    710 MOH     0.1166 ****
4564 HC2     1.479402    8.033428   15.417615 H    710 MOH     0.0372 ****
4565 HC3     1.856989    9.710104   14.971430 H    710 MOH     0.0372 ****
4566 O1      1.346612    8.540064   13.398825 O    710 MOH    -0.6497 ****
4567 HO1     1.049854    9.332883   12.946277 H    710 MOH     0.4215 ****
4568 HC1    11.802425    4.580873   22.609598 H    711 MOH     0.0372 ****
4569 C1     11.877480    5.622722   22.299885 C    711 MOH     0.1166 ****
4570 HC2    12.916134    5.847259   22.056640 H    711 MOH     0.0372 ****
4571 HC3    11.515482    6.224072   23.134978 H    711 MOH     0.0372 ****
4572 O1     10.989516    5.780306   21.223669 O    711 MOH    -0.6497 ****
4573 HO1    11.356711    5.259789   20.505955 H    711 MOH     0.4215 ****
4574 HC1     1.527322    0.668221   23.158313 H    712 MOH     0.0372 ****
4575 C1      2.519787    0.689042   22.707886 C    712 MOH     0.1166 ****
4576 HC2     3.042867    1.600252   22.997800 H    712 MOH     0.0372 ****
4577 HC3     2.459743    0.633520   21.621770 H    712 MOH     0.0372 ****
4578 O1      3.254754   -0.375670   23.156191 O    712 MOH    -0.6497 ****
4579 HO1     2.807885   -1.171754   22.860621 H    712 MOH     0.4215 ****
4580 HC1    -0.532664   12.897707   16.163612 H    713 MOH     0.0372 ****
4581 C1     -0.772264   12.264922   17.017797 C    713 MOH     0.1166 ****
4582 HC2    -1.817845   12.389438   17.298519 H    713 MOH     0.0372 ****
4583 HC3    -0.140065   12.572333   17.851476 H    713 MOH     0.0372 ****
4584 O1     -0.470310   10.914845   16.701721 O    713 MOH    -0.6497 ****
4585 HO1    -0.932767   10.641727   15.906226 H    713 MOH     0.4215 ****
4586 HC1    10.424867   13.054066    6.631106 H    714 MOH     0.0372 ****
4587 C1     11.168494   12.533141    6.028651 C    714 MOH     0.1166 ****
4588 HC2    12.084172   13.122651    5.980568 H    714 MOH     0.0372 ****
4589 HC3    10.832477   12.411891    4.998396 H    714 MOH     0.0372 ****
4590 O1     11.506822   11.304314    6.612721 O    714 MOH    -0.6497 ****
4591 HO1    10.803032   11.032828    7.205984 H    714 MOH     0.4215 ****
4592 HC1     8.702631    1.271204   18.684448 H    715 MOH     0.0372 ****
4593 C1      8.953779    0.750687   19.608637 C    715 MOH     0.1166 ****
4594 HC2     8.286939   -0.102960   19.729552 H    715 MOH     0.0372 ****
4595 HC3     8.830803    1.420623   20.459286 H    715 MOH     0.0372 ****
4596 O1     10.293809    0.319985   19.511763 O    715 MOH    -0.6497 ****
4597 HO1    10.483757   -0.235641   20.270489 H    715 MOH     0.4215 ****
4598 HC1     0.228861    7.499440   17.905216 H    716 MOH     0.0372 ****
4599 C1     -0.780924    7.898706   17.997140 C    716 MOH     0.1166 ****
4600 HC2    -1.393493    7.157328   18.510500 H    716 MOH     0.0372 ****
4601 HC3    -1.182183    8.090583   17.001534 H    716 MOH     0.0372 ****
4602 O1     -0.712797    9.087525   18.759401 O    716 MOH    -0.6497 ****
4603 HO1    -0.378511    9.780731   18.185231 H    716 MOH     0.4215 ****
4604 HC1    12.686926    0.843359   13.628635 H    717 MOH     0.0372 ****
4605 C1     13.558147    1.346730   13.209320 C    717 MOH     0.1166 ****
4606 HC2    13.260234    2.295907   12.765965 H    717 MOH     0.0372 ****
4607 HC3    13.996933    0.735174   12.420189 H    717 MOH     0.0372 ****
4608 O1     14.526941    1.621889   14.195027 O    717 MOH    -0.6497 ****
4609 HO1    14.957067    0.783755   14.378168 H    717 MOH     0.4215 ****
4610 HC1    -4.027365   14.735641   16.329075 H    718 MOH     0.0372 ****
4611 C1     -3.164803   15.198594   15.849657 C    718 MOH     0.1166 ****
4612 HC2    -2.377875   15.313312   16.595655 H    718 MOH     0.0372 ****
4613 HC3    -3.481769   16.190637   15.527216 H    718 MOH     0.0372 ****
4614 O1     -2.782020   14.411083   14.690709 O    718 MOH    -0.6497 ****
4615 HO1    -3.475995   14.457215   14.029564 H    718 MOH     0.4215 ****
4616 HC1     2.658929   10.173058   22.589799 H    719 MOH     0.0372 ****
4617 C1      3.266879   11.043851   22.341604 C    719 MOH     0.1166 ****
4618 HC2     4.316501   10.774407   22.227053 H    719 MOH     0.0372 ****
4619 HC3     3.210298   11.766042   23.156899 H    719 MOH     0.0372 ****
4620 O1      2.871971   11.606009   21.131745 O    719 MOH    -0.6497 ****
4621 HO1     3.153718   11.007517   20.435952 H    719 MOH     0.4215 ****
4622 HC1     8.239597   16.422931   11.901880 H    720 MOH     0.0372 ****
4623 C1      7.224615   16.039586   11.797935 C    720 MOH     0.1166 ****
4624 HC2     6.503504   16.856899   11.819148 H    720 MOH     0.0372 ****
4625 HC3     6.989633   15.344747   12.604037 H    720 MOH     0.0372 ****
4626 O1      7.097020   15.327600   10.615653 O    720 MOH    -0.6497 ****
4627 HO1     7.817553   14.694407   10.583833 H    720 MOH     0.4215 ****
4628 HC1     1.718425    2.428996   12.791420 H    721 MOH     0.0372 ****
4629 C1      2.575213    2.170983   12.167752 C    721 MOH     0.1166 ****
4630 HC2     2.761120    2.964209   11.444382 H    721 MOH     0.0372 ****
4631 HC3     2.329262    1.267121   11.610552 H    721 MOH     0.0372 ****
4632 O1      3.738574    1.980331   12.968904 O    721 MOH    -0.6497 ****
4633 HO1     4.434858    1.632503   12.407461 H    721 MOH     0.4215 ****
4634 HC1     7.773098    2.088925   11.974712 H    722 MOH     0.0372 ****
4635 C1      7.274844    1.313253   11.394884 C    722 MOH     0.1166 ****
4636 HC2     8.001728    0.567792   11.072444 H    722 MOH     0.0372 ****
4637 HC3     6.812387    1.787229   10.528679 H    722 MOH     0.0372 ****
4638 O1      6.299700    0.682510   12.191794 O    722 MOH    -0.6497 ****
4639 HO1     6.771395    0.313453   12.941327 H    722 MOH     0.4215 ****
4640 HC1    11.113646    8.140798   19.161745 H    723 MOH     0.0372 ****
4641 C1     10.491263    9.035270   19.152553 C    723 MOH     0.1166 ****
4642 HC2    10.935245    9.822372   19.762079 H    723 MOH     0.0372 ****
4643 HC3     9.519582    8.757253   19.561968 H    723 MOH     0.0372 ****
4644 O1     10.311707    9.488017   17.830970 O    723 MOH    -0.6497 ****
4645 HO1    11.169072    9.763585   17.497923 H    723 MOH     0.4215 ****
4646 HC1     7.097598   13.787688    7.681160 H    724 MOH     0.0372 ****
4647 C1      7.690536   13.449250    6.831924 C    724 MOH     0.1166 ****
4648 HC2     8.057731   12.453532    7.080119 H    724 MOH     0.0372 ****
4649 HC3     8.537509   14.119186    6.679896 H    724 MOH     0.0372 ****
4650 O1      6.886288   13.398219    5.661663 O    724 MOH    -0.6497 ****
4651 HO1     7.293319   12.747880    5.083956 H    724 MOH     0.4215 ****
4652 HC1     2.854073   14.108571   13.343671 H    725 MOH     0.0372 ****
4653 C1      3.035361   13.070396   13.622978 C    725 MOH     0.1166 ****
4654 HC2     2.376027   12.433120   13.033958 H    725 MOH     0.0372 ****
4655 HC3     2.810772   12.915670   14.678688 H    725 MOH     0.0372 ****
4656 O1      4.365576   12.674803   13.381854 O    725 MOH    -0.6497 ****
4657 HO1     4.545132   12.782989   12.444938 H    725 MOH     0.4215 ****
4658 HC1     6.742527    8.320427   17.002241 H    726 MOH     0.0372 ****
4659 C1      7.196325    9.199794   17.459032 C    726 MOH     0.1166 ****
4660 HC2     8.033482    9.516594   16.836778 H    726 MOH     0.0372 ****
4661 HC3     7.500011    8.950762   18.475852 H    726 MOH     0.0372 ****
4662 O1      6.246006   10.197553   17.423677 O    726 MOH    -0.6497 ****
4663 HO1     5.918071   10.253074   16.522823 H    726 MOH     0.4215 ****
4664 HC1    -1.424670   19.793020   14.673031 H    727 MOH     0.0372 ****
4665 C1     -2.332264   19.729334   15.272658 C    727 MOH     0.1166 ****
4666 HC2    -2.943101   18.882627   14.960117 H    727 MOH     0.0372 ****
4667 HC3    -2.881324   20.661364   15.140429 H    727 MOH     0.0372 ****
4668 O1     -1.960451   19.546030   16.597069 O    727 MOH    -0.6497 ****
4669 HO1    -1.433330   18.743414   16.595655 H    727 MOH     0.4215 ****
4670 HC1    14.105475   11.639486   22.379081 H    728 MOH     0.0372 ****
4671 C1     13.852596   12.504155   22.992850 C    728 MOH     0.1166 ****
4672 HC2    14.660309   12.687459   23.700664 H    728 MOH     0.0372 ****
4673 HC3    12.934609   12.271454   23.531665 H    728 MOH     0.0372 ****
4674 O1     13.660338   13.612549   22.136544 O    728 MOH    -0.6497 ****
4675 HO1    12.975023   13.341473   21.521361 H    728 MOH     0.4215 ****
4676 HC1    10.364823    4.380014   18.844961 H    729 MOH     0.0372 ****
4677 C1     11.187547    3.689258   18.659700 C    729 MOH     0.1166 ****
4678 HC2    11.462943    3.810508   17.612474 H    729 MOH     0.0372 ****
4679 HC3    10.879242    2.649450   18.766473 H    729 MOH     0.0372 ****
4680 O1     12.277584    3.999935   19.544290 O    729 MOH    -0.6497 ****
4681 HO1    12.888421    3.259373   19.557018 H    729 MOH     0.4215 ****
4682 HC1    15.198977    5.337765   17.780059 H    730 MOH     0.0372 ****
4683 C1     14.367592    6.021173   17.610353 C    730 MOH     0.1166 ****
4684 HC2    13.445564    5.561077   17.967442 H    730 MOH     0.0372 ****
4685 HC3    14.297155    6.209375   16.539086 H    730 MOH     0.0372 ****
4686 O1     14.695527    7.241835   18.262306 O    730 MOH    -0.6497 ****
4687 HO1    15.308673    7.044651   18.974362 H    730 MOH     0.4215 ****
4688 HC1     7.705547    7.567209   26.263219 H    731 MOH     0.0372 ****
4689 C1      6.814119    8.193870   26.231399 C    731 MOH     0.1166 ****
4690 HC2     5.925577    7.563126   26.191094 H    731 MOH     0.0372 ****
4691 HC3     6.823356    8.811958   25.333373 H    731 MOH     0.0372 ****
4692 O1      6.824511    9.041393   27.352870 O    731 MOH    -0.6497 ****
4693 HO1     7.580262    9.621514   27.236198 H    731 MOH     0.4215 ****
4694 HC1    14.958799    8.164068   13.802583 H    732 MOH     0.0372 ****
4695 C1     13.949013    7.843185   13.546610 C    732 MOH     0.1166 ****
4696 HC2    13.251574    8.273887   14.265738 H    732 MOH     0.0372 ****
4697 HC3    13.867607    6.756836   13.581259 H    732 MOH     0.0372 ****
4698 O1     13.593943    8.302464   12.274525 O    732 MOH    -0.6497 ****
4699 HO1    14.192655    7.895032   11.645200 H    732 MOH     0.4215 ****
4700 HC1     9.362543    8.829104   24.849712 H    733 MOH     0.0372 ****
4701 C1      9.587132    9.895041   24.899917 C    733 MOH     0.1166 ****
4702 HC2     9.228020   10.442910   24.028761 H    733 MOH     0.0372 ****
4703 HC3    10.673128    9.941581   24.827792 H    733 MOH     0.0372 ****
4704 O1      9.226288   10.493124   26.166345 O    733 MOH    -0.6497 ****
4705 HO1     9.154119   11.441893   26.040480 H    733 MOH     0.4215 ****
4706 HC1     8.449175   -4.621860   16.217353 H    734 MOH     0.0372 ****
4707 C1      9.030566   -3.864560   16.744147 C    734 MOH     0.1166 ****
4708 HC2    10.084231   -4.108692   16.606969 H    734 MOH     0.0372 ****
4709 HC3     8.800781   -3.853945   17.809050 H    734 MOH     0.0372 ****
4710 O1      8.902395   -2.604297   16.191897 O    734 MOH    -0.6497 ****
4711 HO1     9.700870   -2.127872   16.433020 H    734 MOH     0.4215 ****
4712 HC1     3.604628    6.735199   21.299329 H    735 MOH     0.0372 ****
4713 C1      3.949884    5.892166   20.701824 C    735 MOH     0.1166 ****
4714 HC2     4.690047    5.360219   21.300743 H    735 MOH     0.0372 ****
4715 HC3     4.391557    6.277961   19.783292 H    735 MOH     0.0372 ****
4716 O1      2.897374    4.974424   20.368069 O    735 MOH    -0.6497 ****
4717 HO1     3.176235    4.461256   19.606515 H    735 MOH     0.4215 ****
4718 HC1    10.762040   15.272487   15.076789 H    736 MOH     0.0372 ****
4719 C1     10.269560   15.708904   14.207755 C    736 MOH     0.1166 ****
4720 HC2     9.327324   16.196353   14.458071 H    736 MOH     0.0372 ****
4721 HC3    10.017258   14.874445   13.552974 H    736 MOH     0.0372 ****
4722 O1     11.107295   16.633995   13.507719 O    736 MOH    -0.6497 ****
4723 HO1    10.566318   17.333733   13.135781 H    736 MOH     0.4215 ****
4724 HC1     8.669722   -4.944377   11.554691 H    737 MOH     0.0372 ****
4725 C1      8.636814   -3.859253   11.455696 C    737 MOH     0.1166 ****
4726 HC2     9.081951   -3.390175   12.333215 H    737 MOH     0.0372 ****
4727 HC3     7.599315   -3.533471   11.380742 H    737 MOH     0.0372 ****
4728 O1      9.322706   -3.482031   10.290384 O    737 MOH    -0.6497 ****
4729 HO1     9.424319   -2.528771   10.330689 H    737 MOH     0.4215 ****
4730 HC1    17.103078    3.872562   12.737680 H    738 MOH     0.0372 ****
4731 C1     16.197215    4.197119   12.226442 C    738 MOH     0.1166 ****
4732 HC2    15.311560    3.804384   12.725659 H    738 MOH     0.0372 ****
4733 HC3    16.204721    3.848883   11.193359 H    738 MOH     0.0372 ****
4734 O1     16.104262    5.589246   12.240584 O    738 MOH    -0.6497 ****
4735 HO1    16.374462    5.874611   13.116689 H    738 MOH     0.4215 ****
4736 HC1     9.637361    8.436369   14.722529 H    739 MOH     0.0372 ****
4737 C1     10.300737    7.614566   14.991937 C    739 MOH     0.1166 ****
4738 HC2    11.316873    8.000768   15.069718 H    739 MOH     0.0372 ****
4739 HC3    10.286881    6.831954   14.233211 H    739 MOH     0.0372 ****
4740 O1      9.922573    7.187538   16.278871 O    739 MOH    -0.6497 ****
4741 HO1     9.976266    7.956678   16.850213 H    739 MOH     0.4215 ****
4742 HC1    13.417274   14.635620   18.825870 H    740 MOH     0.0372 ****
4743 C1     13.077792   13.889750   18.106742 C    740 MOH     0.1166 ****
4744 HC2    12.571456   13.052433   18.588282 H    740 MOH     0.0372 ****
4745 HC3    13.964602   13.492933   17.611767 H    740 MOH     0.0372 ****
4746 O1     12.236592   14.510287   17.152148 O    740 MOH    -0.6497 ****
4747 HO1    12.766023   15.195328   16.736369 H    740 MOH     0.4215 ****
4748 HC1     4.123666    7.399419    9.844906 H    741 MOH     0.0372 ****
4749 C1      3.493200    7.085884   10.676464 C    741 MOH     0.1166 ****
4750 HC2     2.516901    6.773166   10.305940 H    741 MOH     0.0372 ****
4751 HC3     3.322882    7.912995   11.366600 H    741 MOH     0.0372 ****
4752 O1      4.095376    6.031787   11.372257 O    741 MOH    -0.6497 ****
4753 HO1     3.444703    5.677427   11.981783 H    741 MOH     0.4215 ****
4754 HC1     6.785829   12.131833   12.988703 H    742 MOH     0.0372 ****
4755 C1      7.442276   12.407400   13.813897 C    742 MOH     0.1166 ****
4756 HC2     6.895525   12.371475   14.757177 H    742 MOH     0.0372 ****
4757 HC3     7.788686   13.430062   13.663283 H    742 MOH     0.0372 ****
4758 O1      8.561181   11.535382   13.878950 O    742 MOH    -0.6497 ****
4759 HO1     9.166244   11.861981   14.549288 H    742 MOH     0.4215 ****
4760 HC1    10.562277   16.846692   20.756271 H    743 MOH     0.0372 ****
4761 C1     10.250507   16.427830   21.713694 C    743 MOH     0.1166 ****
4762 HC2     9.723387   17.174108   22.306249 H    743 MOH     0.0372 ****
4763 HC3    11.143091   16.094291   22.241902 H    743 MOH     0.0372 ****
4764 O1      9.435866   15.313720   21.486712 O    743 MOH    -0.6497 ****
4765 HO1     8.749974   15.554995   20.860923 H    743 MOH     0.4215 ****
4766 HC1     3.242053   22.240877   13.036786 H    744 MOH     0.0372 ****
4767 C1      2.334458   22.620548   12.567267 C    744 MOH     0.1166 ****
4768 HC2     2.464939   22.600544   11.484687 H    744 MOH     0.0372 ****
4769 HC3     2.191275   23.651375   12.889001 H    744 MOH     0.0372 ****
4770 O1      1.194191   21.827322   12.941327 O    744 MOH    -0.6497 ****
4771 HO1     0.421119   22.332325   12.678990 H    744 MOH     0.4215 ****
4772 HC1    -3.876099    2.064022   13.041736 H    745 MOH     0.0372 ****
4773 C1     -3.232353    2.848267   12.645049 C    745 MOH     0.1166 ****
4774 HC2    -3.198290    3.649658   13.382561 H    745 MOH     0.0372 ****
4775 HC3    -3.631302    3.288358   11.730053 H    745 MOH     0.0372 ****
4776 O1     -1.920614    2.383680   12.414532 O    745 MOH    -0.6497 ****
4777 HO1    -1.478363    3.170783   12.089263 H    745 MOH     0.4215 ****
4778 HC1     5.399610   13.770950   19.548533 H    746 MOH     0.0372 ****
4779 C1      5.981580   14.013449   18.658992 C    746 MOH     0.1166 ****
4780 HC2     5.945206   13.191645   17.944107 H    746 MOH     0.0372 ****
4781 HC3     7.008686   14.156744   18.996282 H    746 MOH     0.0372 ****
4782 O1      5.515658   15.257790   18.127248 O    746 MOH    -0.6497 ****
4783 HO1     5.931350   15.935074   18.665356 H    746 MOH     0.4215 ****
4784 HC1     2.893910    9.204693   17.220030 H    747 MOH     0.0372 ****
4785 C1      3.056723    8.980564   18.274326 C    747 MOH     0.1166 ****
4786 HC2     3.624258    8.053841   18.366250 H    747 MOH     0.0372 ****
4787 HC3     2.072918    8.862989   18.728289 H    747 MOH     0.0372 ****
4788 O1      3.749543   10.057115   18.866175 O    747 MOH    -0.6497 ****
4789 HO1     4.587856   10.147746   18.407969 H    747 MOH     0.4215 ****
4790 HC1     0.829306    3.138531   21.979566 H    748 MOH     0.0372 ****
4791 C1      0.436130    3.573316   22.898097 C    748 MOH     0.1166 ****
4792 HC2     0.251955    4.638027   22.756676 H    748 MOH     0.0372 ****
4793 HC3     1.135301    3.429204   23.721877 H    748 MOH     0.0372 ****
4794 O1     -0.728385    2.912362   23.226902 O    748 MOH    -0.6497 ****
4795 HO1    -1.152738    3.361843   23.961586 H    748 MOH     0.4215 ****
4796 HC1     2.616205    9.099773    7.884099 H    749 MOH     0.0372 ****
4797 C1      2.482837    8.077111    7.531253 C    749 MOH     0.1166 ****
4798 HC2     1.484021    7.999544    7.102746 H    749 MOH     0.0372 ****
4799 HC3     2.556161    7.360227    8.348668 H    749 MOH     0.0372 ****
4800 O1      3.403133    7.799910    6.519383 O    749 MOH    -0.6497 ****
4801 HO1     3.519181    6.851958    6.427459 H    749 MOH     0.4215 ****
4802 HC1     4.803208   -0.174812    6.841824 H    750 MOH     0.0372 ****
4803 C1      4.066509    0.170974    7.566608 C    750 MOH     0.1166 ****
4804 HC2     3.795732   -0.636949    8.247552 H    750 MOH     0.0372 ****
4805 HC3     3.157759    0.470629    7.046178 H    750 MOH     0.0372 ****
4806 O1      4.506450    1.252424    8.360689 O    750 MOH    -0.6497 ****
4807 HO1     5.453882    1.183838    8.496454 H    750 MOH     0.4215 ****
4808 HC1     5.751794   16.380473    7.193963 H    751 MOH     0.0372 ****
4809 C1      4.904244   15.715845    7.363669 C    751 MOH     0.1166 ****
4810 HC2     4.038796   16.359652    7.519939 H    751 MOH     0.0372 ****
4811 HC3     5.136916   15.114087    8.241895 H    751 MOH     0.0372 ****
4812 O1      4.770876   15.014066    6.148152 O    751 MOH    -0.6497 ****
4813 HO1     5.616694   14.608267    5.943091 H    751 MOH     0.4215 ****
4814 HC1     3.640424   -2.425485   12.604037 H    752 MOH     0.0372 ****
4815 C1      4.675613   -2.121340   12.447766 C    752 MOH     0.1166 ****
4816 HC2     5.264511   -3.023977   12.280182 H    752 MOH     0.0372 ****
4817 HC3     5.048582   -1.564489   13.306194 H    752 MOH     0.0372 ****
4818 O1      4.673304   -1.389759   11.271141 O    752 MOH    -0.6497 ****
4819 HO1     5.310699   -0.680631   11.380742 H    752 MOH     0.4215 ****
4820 HC1    16.702974    2.766617   17.174775 H    753 MOH     0.0372 ****
4821 C1     17.086912    3.363476   16.347460 C    753 MOH     0.1166 ****
4822 HC2    17.774536    2.746205   15.769047 H    753 MOH     0.0372 ****
4823 HC3    17.588052    4.225288   16.789402 H    753 MOH     0.0372 ****
4824 O1     16.021701    3.803160   15.560451 O    753 MOH    -0.6497 ****
4825 HO1    15.492271    3.047084   15.298821 H    753 MOH     0.4215 ****
4826 HC1     7.169189   11.762776   21.775212 H    754 MOH     0.0372 ****
4827 C1      7.232698   10.839727   21.198920 C    754 MOH     0.1166 ****
4828 HC2     8.264422   10.635603   20.913249 H    754 MOH     0.0372 ****
4829 HC3     6.615510   10.951587   20.307965 H    754 MOH     0.0372 ****
4830 O1      6.714814    9.786447   21.964009 O    754 MOH    -0.6497 ****
4831 HO1     6.964807    8.961785   21.539745 H    754 MOH     0.4215 ****
4832 HC1    -4.881843   11.070387   13.292759 H    755 MOH     0.0372 ****
4833 C1     -5.048120   12.140814   13.411553 C    755 MOH     0.1166 ****
4834 HC2    -4.694782   12.461698   14.391603 H    755 MOH     0.0372 ****
4835 HC3    -6.115063   12.353920   13.339428 H    755 MOH     0.0372 ****
4836 O1     -4.361073   12.855249   12.401804 O    755 MOH    -0.6497 ****
4837 HO1    -4.451717   12.325343   11.607016 H    755 MOH     0.4215 ****
4838 HC1     1.781356   17.386397   10.443826 H    756 MOH     0.0372 ****
4839 C1      2.652578   16.731158   10.424734 C    756 MOH     0.1166 ****
4840 HC2     2.652001   16.159610    9.497010 H    756 MOH     0.0372 ****
4841 HC3     2.624865   16.022031   11.252756 H    756 MOH     0.0372 ****
4842 O1      3.830950   17.515811   10.498273 O    756 MOH    -0.6497 ****
4843 HO1     3.801505   18.026530   11.310739 H    756 MOH     0.4215 ****
4844 HC1    16.595010    8.223264   15.910468 H    757 MOH     0.0372 ****
4845 C1     17.235291    7.347979   16.019363 C    757 MOH     0.1166 ****
4846 HC2    17.085180    6.947080   17.022040 H    757 MOH     0.0372 ****
4847 HC3    18.273944    7.660698   15.913297 H    757 MOH     0.0372 ****
4848 O1     16.855972    6.406151   15.015978 O    757 MOH    -0.6497 ****
4849 HO1    16.784958    5.532908   15.408423 H    757 MOH     0.4215 ****
4850 HC1    -2.403856   10.621314   12.968904 H    758 MOH     0.0372 ****
4851 C1     -2.136543    9.616615   13.297709 C    758 MOH     0.1166 ****
4852 HC2    -1.191997    9.327167   12.837382 H    758 MOH     0.0372 ****
4853 HC3    -2.899222    8.902997   12.987996 H    758 MOH     0.0372 ****
4854 O1     -1.969111    9.624372   14.726771 O    758 MOH    -0.6497 ****
4855 HO1    -2.797609    9.812166   15.173663 H    758 MOH     0.4215 ****
4856 HC1    14.730746   10.436786   20.331300 H    759 MOH     0.0372 ****
4857 C1     15.589265   10.798494   19.765615 C    759 MOH     0.1166 ****
4858 HC2    15.241123   11.317786   18.873246 H    759 MOH     0.0372 ****
4859 HC3    16.218577    9.957911   19.472165 H    759 MOH     0.0372 ****
4860 O1     16.338666   11.688067   20.561110 O    759 MOH    -0.6497 ****
4861 HO1    16.506098   11.269613   21.408931 H    759 MOH     0.4215 ****
4862 HC1    15.529798   11.757877   10.399278 H    760 MOH     0.0372 ****
4863 C1     15.082929   12.171841    9.495596 C    760 MOH     0.1166 ****
4864 HC2    14.055246   12.490683    9.667423 H    760 MOH     0.0372 ****
4865 HC3    15.113529   11.399435    8.726263 H    760 MOH     0.0372 ****
4866 O1     15.893529   13.236144    9.107394 O    760 MOH    -0.6497 ****
4867 HO1    16.075394   13.782381    9.875312 H    760 MOH     0.4215 ****
4868 HC1     0.477699   16.698907   15.045677 H    761 MOH     0.0372 ****
4869 C1      0.107041   16.302089   15.990371 C    761 MOH     0.1166 ****
4870 HC2     0.961519   16.179206   16.655759 H    761 MOH     0.0372 ****
4871 HC3    -0.364655   15.326376   15.874406 H    761 MOH     0.0372 ****
4872 O1     -0.748015   17.237386   16.552521 O    761 MOH    -0.6497 ****
4873 HO1    -0.563263   17.239019   17.494387 H    761 MOH     0.4215 ****
4874 HC1     0.361652    3.644351   27.197307 H    762 MOH     0.0372 ****
4875 C1      1.255968    3.201810   27.637127 C    762 MOH     0.1166 ****
4876 HC2     1.321785    3.474928   28.690009 H    762 MOH     0.0372 ****
4877 HC3     2.146242    3.571683   27.128010 H    762 MOH     0.0372 ****
4878 O1      1.204583    1.789271   27.521162 O    762 MOH    -0.6497 ****
4879 HO1     2.109869    1.481043   27.609550 H    762 MOH     0.4215 ****
4880 HC1    -0.984729   -0.714108    5.532969 H    763 MOH     0.0372 ****
4881 C1     -0.470887   -0.405064    6.443016 C    763 MOH     0.1166 ****
4882 HC2     0.612222   -0.431192    6.327050 H    763 MOH     0.0372 ****
4883 HC3    -0.773996   -1.044381    7.273159 H    763 MOH     0.0372 ****
4884 O1     -0.910250    0.852341    6.725858 O    763 MOH    -0.6497 ****
4885 HO1    -1.242227    1.214457    5.900665 H    763 MOH     0.4215 ****
4886 HC1    -0.234173   12.024055   20.783848 H    764 MOH     0.0372 ****
4887 C1     -0.300569   11.763593   21.840266 C    764 MOH     0.1166 ****
4888 HC2    -0.192604   10.685409   21.964009 H    764 MOH     0.0372 ****
4889 HC3    -1.284374   12.078352   22.188869 H    764 MOH     0.0372 ****
4890 O1      0.683236   12.482518   22.563636 O    764 MOH    -0.6497 ****
4891 HO1     1.505960   12.373516   22.080682 H    764 MOH     0.4215 ****
4892 HC1     7.312372   14.584997   25.632479 H    765 MOH     0.0372 ****
4893 C1      7.750003   13.681543   25.207508 C    765 MOH     0.1166 ****
4894 HC2     7.993645   13.876686   24.163819 H    765 MOH     0.0372 ****
4895 HC3     7.044481   12.855249   25.300846 H    765 MOH     0.0372 ****
4896 O1      8.886229   13.383930   25.954920 O    765 MOH    -0.6497 ****
4897 HO1     9.513808   14.109796   25.906837 H    765 MOH     0.4215 ****
4898 HC1     4.092489    7.387171   24.999619 H    766 MOH     0.0372 ****
4899 C1      3.681993    6.430646   25.322767 C    766 MOH     0.1166 ****
4900 HC2     4.460839    5.668038   25.343980 H    766 MOH     0.0372 ****
4901 HC3     2.896797    6.151812   24.620610 H    766 MOH     0.0372 ****
4902 O1      3.086168    6.575165   26.578588 O    766 MOH    -0.6497 ****
4903 HO1     3.706819    7.024239   27.157002 H    766 MOH     0.4215 ****
4904 HC1     0.475390   18.112670   11.970469 H    767 MOH     0.0372 ****
4905 C1      1.041771   18.417632   12.850817 C    767 MOH     0.1166 ****
4906 HC2     1.427441   17.523976   13.342256 H    767 MOH     0.0372 ****
4907 HC3     0.387633   18.941414   13.547317 H    767 MOH     0.0372 ****
4908 O1      2.136427   19.232087   12.445645 O    767 MOH    -0.6497 ****
4909 HO1     1.785398   20.107371   12.268868 H    767 MOH     0.4215 ****
4910 HC1    -7.608091    8.707854   11.367307 H    768 MOH     0.0372 ****
4911 C1     -7.049216    9.340231   12.056736 C    768 MOH     0.1166 ****
4912 HC2    -7.004183   10.340848   11.626108 H    768 MOH     0.0372 ****
4913 HC3    -6.035966    8.945863   12.137346 H    768 MOH     0.0372 ****
4914 O1     -7.714323    9.352479   13.345085 O    768 MOH    -0.6497 ****
4915 HO1    -7.247247    8.734391   13.910770 H    768 MOH     0.4215 ****
4916 HC1     0.866834    2.494724    9.266493 H    769 MOH     0.0372 ****
4917 C1     -0.015358    3.078111    9.527415 C    769 MOH     0.1166 ****
4918 HC2     0.288906    4.076686    9.838542 H    769 MOH     0.0372 ****
4919 HC3    -0.550561    2.588213   10.340588 H    769 MOH     0.0372 ****
4920 O1     -0.836350    3.133224    8.359982 O    769 MOH    -0.6497 ****
4921 HO1    -0.926994    2.244468    8.007136 H    769 MOH     0.4215 ****
4922 HC1     2.597152    4.357561   14.332913 H    770 MOH     0.0372 ****
4923 C1      2.285383    5.401043   14.297558 C    770 MOH     0.1166 ****
4924 HC2     3.091364    6.058323   14.625655 H    770 MOH     0.0372 ****
4925 HC3     1.442452    5.524334   14.976380 H    770 MOH     0.0372 ****
4926 O1      1.832163    5.747238   13.003552 O    770 MOH    -0.6497 ****
4927 HO1     1.620853    6.682943   13.033251 H    770 MOH     0.4215 ****
4928 HC1     9.293261   12.371066   21.830366 H    771 MOH     0.0372 ****
4929 C1     10.218753   12.670721   22.323927 C    771 MOH     0.1166 ****
4930 HC2    10.662735   11.816665   22.835872 H    771 MOH     0.0372 ****
4931 HC3     9.972802   13.422714   23.073460 H    771 MOH     0.0372 ****
4932 O1     11.100944   13.170008   21.297915 O    771 MOH    -0.6497 ****
4933 HO1    10.910419   14.108163   21.222962 H    771 MOH     0.4215 ****
4934 HC1    -1.677549    3.528408   15.149621 H    772 MOH     0.0372 ****
4935 C1     -0.906209    3.235286   15.862385 C    772 MOH     0.1166 ****
4936 HC2    -0.008429    2.978906   15.299528 H    772 MOH     0.0372 ****
4937 HC3    -1.236453    2.346938   16.401200 H    772 MOH     0.0372 ****
4938 O1     -0.645824    4.312653   16.771017 O    772 MOH    -0.6497 ****
4939 HO1    -1.312086    4.287750   17.461860 H    772 MOH     0.4215 ****
4940 HC1    -1.806876    4.139148   21.032750 H    773 MOH     0.0372 ****
4941 C1     -1.323633    3.988504   20.067549 C    773 MOH     0.1166 ****
4942 HC2    -0.868104    2.998910   20.047750 H    773 MOH     0.0372 ****
4943 HC3    -0.563263    4.757644   19.928956 H    773 MOH     0.0372 ****
4944 O1     -2.354781    4.037902   19.081135 O    773 MOH    -0.6497 ****
4945 HO1    -2.867468    4.838885   19.211243 H    773 MOH     0.4215 ****
4946 HC1    -6.106980    5.566792   14.699194 H    774 MOH     0.0372 ****
4947 C1     -5.519238    6.482493   14.760713 C    774 MOH     0.1166 ****
4948 HC2    -5.053316    6.693149   13.797633 H    774 MOH     0.0372 ****
4949 HC3    -4.730577    6.333891   15.497518 H    774 MOH     0.0372 ****
4950 O1     -6.300970    7.607217   15.136186 O    774 MOH    -0.6497 ****
4951 HO1    -6.701074    7.443101   15.993200 H    774 MOH     0.4215 ****
4952 HC1     7.710166   16.240035   17.178311 H    775 MOH     0.0372 ****
4953 C1      8.655866   16.582964   17.598332 C    775 MOH     0.1166 ****
4954 HC2     8.542128   17.557453   18.074215 H    775 MOH     0.0372 ****
4955 HC3     9.385637   16.696457   16.796473 H    775 MOH     0.0372 ****
4956 O1      9.097539   15.660731   18.570604 O    775 MOH    -0.6497 ****
4957 HO1     9.928923   15.272487   18.288468 H    775 MOH     0.4215 ****
4958 HC1    12.528039   30.915173   12.520598 H    776 MOH     0.0372 ****
4959 C1     11.491695   31.053978   12.827483 C    776 MOH     0.1166 ****
4960 HC2    10.928201   31.418135   11.969055 H    776 MOH     0.0372 ****
4961 HC3    11.421836   31.803930   13.615907 H    776 MOH     0.0372 ****
4962 O1     10.966306   29.811270   13.244676 O    776 MOH    -0.6497 ****
4963 HO1    10.203627   29.963547   13.806825 H    776 MOH     0.4215 ****
4964 HC1     7.026468   20.374203   16.611918 H    777 MOH     0.0372 ****
4965 C1      6.225683   19.980243   17.237708 C    777 MOH     0.1166 ****
4966 HC2     5.659880   19.249887   16.658587 H    777 MOH     0.0372 ****
4967 HC3     5.553070   20.757139   17.599039 H    777 MOH     0.0372 ****
4968 O1      6.722782   19.239272   18.282104 O    777 MOH    -0.6497 ****
4969 HO1     7.267223   19.835315   18.801121 H    777 MOH     0.4215 ****
4970 HC1    18.757071   15.508699    7.705201 H    778 MOH     0.0372 ****
4971 C1     18.570009   14.522780    8.130172 C    778 MOH     0.1166 ****
4972 HC2    18.177989   14.617493    9.142749 H    778 MOH     0.0372 ****
4973 HC3    19.527256   14.006346    8.198762 H    778 MOH     0.0372 ****
4974 O1     17.728810   13.718939    7.280937 O    778 MOH    -0.6497 ****
4975 HO1    17.012896   13.372744    7.818338 H    778 MOH     0.4215 ****
4976 HC1    21.387479   15.980634   14.342106 H    779 MOH     0.0372 ****
4977 C1     20.538774   16.415419   14.870314 C    779 MOH     0.1166 ****
4978 HC2    20.402519   17.442572   14.532317 H    779 MOH     0.0372 ****
4979 HC3    20.703319   16.403171   15.947945 H    779 MOH     0.0372 ****
4980 O1     19.373104   15.717314   14.536560 O    779 MOH    -0.6497 ****
4981 HO1    19.400239   14.916739   15.066183 H    779 MOH     0.4215 ****
4982 HC1    20.281853   23.056394    4.728282 H    780 MOH     0.0372 ****
4983 C1     19.489728   22.524038    5.254369 C    780 MOH     0.1166 ****
4984 HC2    19.516864   22.781643    6.312908 H    780 MOH     0.0372 ****
4985 HC3    19.655428   21.456469    5.112241 H    780 MOH     0.0372 ****
4986 O1     18.261127   22.939635    4.698583 O    780 MOH    -0.6497 ****
4987 HO1    17.566575   22.580785    5.256490 H    780 MOH     0.4215 ****
4988 HC1    15.436730   28.090503    6.677775 H    781 MOH     0.0372 ****
4989 C1     15.482340   27.635715    5.687825 C    781 MOH     0.1166 ****
4990 HC2    16.399750   27.056819    5.578931 H    781 MOH     0.0372 ****
4991 HC3    15.471948   28.413428    4.924857 H    781 MOH     0.0372 ****
4992 O1     14.379024   26.799214    5.470744 O    781 MOH    -0.6497 ****
4993 HO1    14.638254   25.911682    5.728131 H    781 MOH     0.4215 ****
4994 HC1    23.543882   23.533636    5.173052 H    782 MOH     0.0372 ****
4995 C1     23.742491   24.494244    5.647521 C    782 MOH     0.1166 ****
4996 HC2    24.807124   24.711432    5.564082 H    782 MOH     0.0372 ****
4997 HC3    23.513282   24.459135    6.712423 H    782 MOH     0.0372 ****
4998 O1     22.949211   25.489962    4.996275 O    782 MOH    -0.6497 ****
4999 HO1    22.996554   26.266042    5.559839 H    782 MOH     0.4215 ****
5000 HC1     6.238385   26.929037   17.778644 H    783 MOH     0.0372 ****
5001 C1      7.278770   26.956390   17.452668 C    783 MOH     0.1166 ****
5002 HC2     7.863049   26.316665   18.115227 H    783 MOH     0.0372 ****
5003 HC3     7.619984   27.990074   17.506408 H    783 MOH     0.0372 ****
5004 O1      7.345743   26.474249   16.129671 O    783 MOH    -0.6497 ****
5005 HO1     6.751072   25.721439   16.085831 H    783 MOH     0.4215 ****
5006 HC1     9.118785   22.246837   13.618735 H    784 MOH     0.0372 ****
5007 C1     10.033308   22.553024   13.111032 C    784 MOH     0.1166 ****
5008 HC2    10.628556   23.207446   13.748136 H    784 MOH     0.0372 ****
5009 HC3     9.757912   23.099260   12.208764 H    784 MOH     0.0372 ****
5010 O1     10.735366   21.413603   12.712931 O    784 MOH    -0.6497 ****
5011 HO1    11.670096   21.612420   12.802734 H    784 MOH     0.4215 ****
5012 HC1    22.385140   18.066375   10.185025 H    785 MOH     0.0372 ****
5013 C1     22.432483   18.789791   10.999612 C    785 MOH     0.1166 ****
5014 HC2    21.639203   19.517289   10.828492 H    785 MOH     0.0372 ****
5015 HC3    23.393194   19.303367   10.952943 H    785 MOH     0.0372 ****
5016 O1     22.247153   18.148025   12.293617 O    785 MOH    -0.6497 ****
5017 HO1    22.055473   18.823676   12.949105 H    785 MOH     0.4215 ****
5018 HC1     6.064603   21.909216    8.763033 H    786 MOH     0.0372 ****
5019 C1      6.107327   22.150899    9.825107 C    786 MOH     0.1166 ****
5020 HC2     7.144248   22.088845   10.156033 H    786 MOH     0.0372 ****
5021 HC3     5.509769   21.449120   10.407056 H    786 MOH     0.0372 ****
5022 O1      5.673736   23.444638   10.094515 O    786 MOH    -0.6497 ****
5023 HO1     4.904129   23.636106    9.553578 H    786 MOH     0.4215 ****
5024 HC1     3.461330   25.846771   16.478275 H    787 MOH     0.0372 ****
5025 C1      3.026585   24.961280   16.941430 C    787 MOH     0.1166 ****
5026 HC2     2.614357   24.286446   16.191190 H    787 MOH     0.0372 ****
5027 HC3     2.204439   25.247462   17.598332 H    787 MOH     0.0372 ****
5028 O1      3.931871   24.258685   17.736925 O    787 MOH    -0.6497 ****
5029 HO1     3.405327   23.540985   18.097549 H    787 MOH     0.4215 ****
5030 HC1     9.373974   24.018635    9.149820 H    788 MOH     0.0372 ****
5031 C1      8.833575   24.888204    8.776468 C    788 MOH     0.1166 ****
5032 HC2     8.390170   24.558748    7.836723 H    788 MOH     0.0372 ****
5033 HC3     9.556417   25.691228    8.630097 H    788 MOH     0.0372 ****
5034 O1      7.842264   25.226642    9.769953 O    788 MOH    -0.6497 ****
5035 HO1     7.206601   24.512615    9.852684 H    788 MOH     0.4215 ****
5036 HC1     7.817438   17.246612    4.840712 H    789 MOH     0.0372 ****
5037 C1      8.230244   18.254169    4.803942 C    789 MOH     0.1166 ****
5038 HC2     8.144796   18.724879    5.783285 H    789 MOH     0.0372 ****
5039 HC3     7.653471   18.842047    4.089764 H    789 MOH     0.0372 ****
5040 O1      9.569696   18.198647    4.372607 O    789 MOH    -0.6497 ****
5041 HO1     9.603182   17.538102    3.676814 H    789 MOH     0.4215 ****
5042 HC1    23.930707   15.403371   10.789601 H    790 MOH     0.0372 ****
5043 C1     23.250588   14.834682   11.423876 C    790 MOH     0.1166 ****
5044 HC2    23.605081   14.871832   12.454130 H    790 MOH     0.0372 ****
5045 HC3    23.195740   13.798139   11.092243 H    790 MOH     0.0372 ****
5046 O1     22.017945   15.457668   11.341851 O    790 MOH    -0.6497 ****
5047 HO1    22.120136   16.350507   11.677727 H    790 MOH     0.4215 ****
5048 HC1    17.798669   21.866758   15.773290 H    791 MOH     0.0372 ****
5049 C1     17.658373   21.712440   14.704144 C    791 MOH     0.1166 ****
5050 HC2    17.462074   22.666925   14.214826 H    791 MOH     0.0372 ****
5051 HC3    16.824102   21.033524   14.528075 H    791 MOH     0.0372 ****
5052 O1     18.833858   21.158039   14.152601 O    791 MOH    -0.6497 ****
5053 HO1    19.480491   21.057202   14.854758 H    791 MOH     0.4215 ****
5054 HC1    15.254864   21.660593    8.404530 H    792 MOH     0.0372 ****
5055 C1     15.093783   20.647729    8.772932 C    792 MOH     0.1166 ****
5056 HC2    14.342651   20.692636    9.560649 H    792 MOH     0.0372 ****
5057 HC3    16.018699   20.247237    9.188004 H    792 MOH     0.0372 ****
5058 O1     14.642296   19.801022    7.716515 O    792 MOH    -0.6497 ****
5059 HO1    15.047018   18.942884    7.866422 H    792 MOH     0.4215 ****
5060 HC1    24.260374   15.777735   16.018656 H    793 MOH     0.0372 ****
5061 C1     24.094097   15.864692   17.092751 C    793 MOH     0.1166 ****
5062 HC2    24.166266   16.920830   17.352259 H    793 MOH     0.0372 ****
5063 HC3    24.881025   15.310699   17.605403 H    793 MOH     0.0372 ****
5064 O1     22.768501   15.345808   17.326803 O    793 MOH    -0.6497 ****
5065 HO1    22.457309   15.694452   18.165432 H    793 MOH     0.4215 ****
5066 HC1     7.633841   24.347683   19.217607 H    794 MOH     0.0372 ****
5067 C1      7.242397   23.578543   18.552926 C    794 MOH     0.1166 ****
5068 HC2     7.741805   23.612428   17.584897 H    794 MOH     0.0372 ****
5069 HC3     6.170835   23.741026   18.428475 H    794 MOH     0.0372 ****
5070 O1      7.383271   22.311749   19.137704 O    794 MOH    -0.6497 ****
5071 HO1     6.936979   22.311341   19.986939 H    794 MOH     0.4215 ****
5072 HC1    23.853919   21.915748   14.837080 H    795 MOH     0.0372 ****
5073 C1     23.837176   20.908600   14.419180 C    795 MOH     0.1166 ****
5074 HC2    24.338893   20.250095   15.126994 H    795 MOH     0.0372 ****
5075 HC3    24.388545   20.880022   13.478728 H    795 MOH     0.0372 ****
5076 O1     22.494259   20.472999   14.269981 O    795 MOH    -0.6497 ****
5077 HO1    22.002357   20.733869   15.052748 H    795 MOH     0.4215 ****
5078 HC1    17.988618   25.706742   13.968753 H    796 MOH     0.0372 ****
5079 C1     16.925138   25.907600   13.837231 C    796 MOH     0.1166 ****
5080 HC2    16.343169   24.986592   13.864101 H    796 MOH     0.0372 ****
5081 HC3    16.760016   26.378310   12.867788 H    796 MOH     0.0372 ****
5082 O1     16.474805   26.797989   14.816574 O    796 MOH    -0.6497 ****
5083 HO1    16.585079   27.692461   14.486355 H    796 MOH     0.4215 ****
5084 HC1    17.469002   17.378477   16.375745 H    797 MOH     0.0372 ****
5085 C1     17.283096   17.964313   15.475598 C    797 MOH     0.1166 ****
5086 HC2    17.300993   17.340510   14.581815 H    797 MOH     0.0372 ****
5087 HC3    18.030764   18.749783   15.366703 H    797 MOH     0.0372 ****
5088 O1     16.040638   18.552599   15.604998 O    797 MOH    -0.6497 ****
5089 HO1    15.742148   18.663234   14.699194 H    797 MOH     0.4215 ****
5090 HC1    18.653725   20.953507   17.794908 H    798 MOH     0.0372 ****
5091 C1     19.407745   20.199881   17.567219 C    798 MOH     0.1166 ****
5092 HC2    18.921616   19.310308   17.167704 H    798 MOH     0.0372 ****
5093 HC3    19.896760   19.910433   18.497065 H    798 MOH     0.0372 ****
5094 O1     20.341897   20.742034   16.622525 O    798 MOH    -0.6497 ****
5095 HO1    20.558404   21.639772   16.882033 H    798 MOH     0.4215 ****
5096 HC1    16.899158   29.306267    8.708586 H    799 MOH     0.0372 ****
5097 C1     16.661867   29.019677    9.733890 C    799 MOH     0.1166 ****
5098 HC2    17.423969   28.357090   10.143305 H    799 MOH     0.0372 ****
5099 HC3    15.708662   28.490995    9.714799 H    799 MOH     0.0372 ****
5100 O1     16.560253   30.146034   10.571812 O    799 MOH    -0.6497 ****
5101 HO1    17.333903   30.702476   10.452311 H    799 MOH     0.4215 ****
5102 HC1    14.590334   14.323963   15.060526 H    800 MOH     0.0372 ****
5103 C1     14.183302   15.324579   14.915569 C    800 MOH     0.1166 ****
5104 HC2    13.137721   15.278856   14.610099 H    800 MOH     0.0372 ****
5105 HC3    14.739868   15.782226   14.098861 H    800 MOH     0.0372 ****
5106 O1     14.338032   16.148425   16.072396 O    800 MOH    -0.6497 ****
5107 HO1    14.620934   17.028608   15.812180 H    800 MOH     0.4215 ****
5108 HC1    13.996241   18.729370   17.282963 H    801 MOH     0.0372 ****
5109 C1     14.084575   19.715290   17.739046 C    801 MOH     0.1166 ****
5110 HC2    13.483553   19.747133   18.646972 H    801 MOH     0.0372 ****
5111 HC3    13.732391   20.450545   17.015676 H    801 MOH     0.0372 ****
5112 O1     15.424605   19.919006   18.046638 O    801 MOH    -0.6497 ****
5113 HO1    15.909579   19.452378   17.362866 H    801 MOH     0.4215 ****
5114 HC1    15.959809   13.892036   18.096842 H    802 MOH     0.0372 ****
5115 C1     17.035990   13.900201   17.927137 C    802 MOH     0.1166 ****
5116 HC2    17.456301   14.760380   18.446860 H    802 MOH     0.0372 ****
5117 HC3    17.239794   13.960622   16.857991 H    802 MOH     0.0372 ****
5118 O1     17.629506   12.755473   18.427768 O    802 MOH    -0.6497 ****
5119 HO1    17.167626   12.494194   19.226799 H    802 MOH     0.4215 ****
5120 HC1    12.605981   28.559989   10.695556 H    803 MOH     0.0372 ****
5121 C1     12.023435   27.687154   10.991126 C    803 MOH     0.1166 ****
5122 HC2    12.359453   26.772270   10.503930 H    803 MOH     0.0372 ****
5123 HC3    11.003257   27.867192   10.653836 H    803 MOH     0.0372 ****
5124 O1     12.016507   27.540185   12.394026 O    803 MOH    -0.6497 ****
5125 HO1    11.830022   28.401997   12.775157 H    803 MOH     0.4215 ****
5126 HC1    11.775174   25.545484   14.966481 H    804 MOH     0.0372 ****
5127 C1     12.806899   25.261751   14.760713 C    804 MOH     0.1166 ****
5128 HC2    13.077676   24.435865   15.417615 H    804 MOH     0.0372 ****
5129 HC3    13.455263   26.112541   14.971430 H    804 MOH     0.0372 ****
5130 O1     12.944886   24.942501   13.398825 O    804 MOH    -0.6497 ****
5131 HO1    12.648128   25.735319   12.946277 H    804 MOH     0.4215 ****
5132 HC1    17.269239   24.817985    9.279928 H    805 MOH     0.0372 ****
5133 C1     17.283673   25.525479    8.450492 C    805 MOH     0.1166 ****
5134 HC2    16.292940   25.956590    8.309070 H    805 MOH     0.0372 ****
5135 HC3    17.622578   25.032316    7.539738 H    805 MOH     0.0372 ****
5136 O1     18.160668   26.577127    8.757376 O    805 MOH    -0.6497 ****
5137 HO1    18.356967   26.584067    9.697121 H    805 MOH     0.4215 ****
5138 HC1    11.065611   29.300143   16.163612 H    806 MOH     0.0372 ****
5139 C1     10.826010   28.667358   17.017797 C    806 MOH     0.1166 ****
5140 HC2     9.780429   28.791874   17.298519 H    806 MOH     0.0372 ****
5141 HC3    11.458209   28.974769   17.851476 H    806 MOH     0.0372 ****
5142 O1     11.127964   27.317281   16.701721 O    806 MOH    -0.6497 ****
5143 HO1    10.665507   27.044163   15.906226 H    806 MOH     0.4215 ****
5144 HC1     8.472153   21.361755    7.063855 H    807 MOH     0.0372 ****
5145 C1      9.260236   21.396048    6.311494 C    807 MOH     0.1166 ****
5146 HC2     8.839925   21.787558    5.384477 H    807 MOH     0.0372 ****
5147 HC3     9.658031   20.398289    6.124817 H    807 MOH     0.0372 ****
5148 O1     10.266558   22.296235    6.661512 O    807 MOH    -0.6497 ****
5149 HO1    11.093901   21.831241    6.517969 H    807 MOH     0.4215 ****
5150 HC1    11.675870   20.741218    4.345737 H    808 MOH     0.0372 ****
5151 C1     12.105996   20.171303    5.170223 C    808 MOH     0.1166 ****
5152 HC2    12.881377   19.527496    4.755152 H    808 MOH     0.0372 ****
5153 HC3    11.360637   19.522597    5.630550 H    808 MOH     0.0372 ****
5154 O1     12.675263   21.065775    6.109968 O    808 MOH    -0.6497 ****
5155 HO1    13.089801   20.526479    6.786669 H    808 MOH     0.4215 ****
5156 HC1    22.739056   23.779402   11.290940 H    809 MOH     0.0372 ****
5157 C1     22.699796   22.709791   11.085879 C    809 MOH     0.1166 ****
5158 HC2    21.921528   22.281539   11.717325 H    809 MOH     0.0372 ****
5159 HC3    23.668590   22.273374   11.329831 H    809 MOH     0.0372 ****
5160 O1     22.411121   22.417893    9.717627 O    809 MOH    -0.6497 ****
5161 HO1    22.840669   21.603438    9.445391 H    809 MOH     0.4215 ****
5162 HC1    26.900596   22.459535    9.044462 H    810 MOH     0.0372 ****
5163 C1     26.378094   23.388708    9.272150 C    810 MOH     0.1166 ****
5164 HC2    25.345792   23.175602    9.550750 H    810 MOH     0.0372 ****
5165 HC3    26.418509   24.034965    8.396045 H    810 MOH     0.0372 ****
5166 O1     27.065719   23.952091   10.338467 O    810 MOH    -0.6497 ****
5167 HO1    27.528176   23.236840   10.781116 H    810 MOH     0.4215 ****
5168 HC1    20.300905   17.673640   18.684448 H    811 MOH     0.0372 ****
5169 C1     20.552053   17.153124   19.608637 C    811 MOH     0.1166 ****
5170 HC2    19.885213   16.299476   19.729552 H    811 MOH     0.0372 ****
5171 HC3    20.429077   17.823059   20.459286 H    811 MOH     0.0372 ****
5172 O1     21.892083   16.722422   19.511763 O    811 MOH    -0.6497 ****
5173 HO1    22.082031   16.166796   20.270489 H    811 MOH     0.4215 ****
5174 HC1    21.773726   24.604063    8.663331 H    812 MOH     0.0372 ****
5175 C1     20.836687   24.860035    8.170477 C    812 MOH     0.1166 ****
5176 HC2    19.998374   24.528129    8.783539 H    812 MOH     0.0372 ****
5177 HC3    20.818211   24.361155    7.201741 H    812 MOH     0.0372 ****
5178 O1     20.806087   26.243588    7.953396 O    812 MOH    -0.6497 ****
5179 HO1    19.889832   26.484863    7.801368 H    812 MOH     0.4215 ****
5180 HC1    11.827136   23.901876   17.905216 H    813 MOH     0.0372 ****
5181 C1     10.817350   24.301143   17.997140 C    813 MOH     0.1166 ****
5182 HC2    10.204781   23.559764   18.510500 H    813 MOH     0.0372 ****
5183 HC3    10.416092   24.493020   17.001534 H    813 MOH     0.0372 ****
5184 O1     10.885477   25.489962   18.759401 O    813 MOH    -0.6497 ****
5185 HO1    11.219763   26.183168   18.185231 H    813 MOH     0.4215 ****
5186 HC1    18.444147   19.894103    6.955668 H    814 MOH     0.0372 ****
5187 C1     18.749565   18.913898    6.588680 C    814 MOH     0.1166 ****
5188 HC2    19.698729   18.993507    6.059057 H    814 MOH     0.0372 ****
5189 HC3    17.982844   18.521572    5.921878 H    814 MOH     0.0372 ****
5190 O1     18.903141   17.993299    7.662775 O    814 MOH    -0.6497 ****
5191 HO1    19.752423   17.559331    7.554587 H    814 MOH     0.4215 ****
5192 HC1    24.285200   17.245796   13.628635 H    815 MOH     0.0372 ****
5193 C1     25.156421   17.749166   13.209320 C    815 MOH     0.1166 ****
5194 HC2    24.858509   18.698343   12.765965 H    815 MOH     0.0372 ****
5195 HC3    25.595207   17.137610   12.420189 H    815 MOH     0.0372 ****
5196 O1     26.125215   18.024325   14.195027 O    815 MOH    -0.6497 ****
5197 HO1    26.555341   17.186192   14.378168 H    815 MOH     0.4215 ****
5198 HC1     7.570909   31.138077   16.329075 H    816 MOH     0.0372 ****
5199 C1      8.433471   31.601031   15.849657 C    816 MOH     0.1166 ****
5200 HC2     9.220399   31.715748   16.595655 H    816 MOH     0.0372 ****
5201 HC3     8.116505   32.593074   15.527216 H    816 MOH     0.0372 ****
5202 O1      8.816254   30.813520   14.690709 O    816 MOH    -0.6497 ****
5203 HO1     8.122279   30.859652   14.029564 H    816 MOH     0.4215 ****
5204 HC1    15.730024   23.569562    1.880763 H    817 MOH     0.0372 ****
5205 C1     16.653784   23.757764    1.332755 C    817 MOH     0.1166 ****
5206 HC2    17.244413   22.842880    1.370232 H    817 MOH     0.0372 ****
5207 HC3    17.176286   24.581201    1.819951 H    817 MOH     0.0372 ****
5208 O1     16.380697   24.110083   -0.021355 O    817 MOH    -0.6497 ****
5209 HO1    17.162430   24.532211   -0.384808 H    817 MOH     0.4215 ****
5210 HC1    13.316699   18.831432   12.791420 H    818 MOH     0.0372 ****
5211 C1     14.173487   18.573419   12.167752 C    818 MOH     0.1166 ****
5212 HC2    14.359394   19.366646   11.444382 H    818 MOH     0.0372 ****
5213 HC3    13.927536   17.669558   11.610552 H    818 MOH     0.0372 ****
5214 O1     15.336848   18.382767   12.968904 O    818 MOH    -0.6497 ****
5215 HO1    16.033132   18.034940   12.407461 H    818 MOH     0.4215 ****
5216 HC1    19.371372   18.491361   11.974712 H    819 MOH     0.0372 ****
5217 C1     18.873118   17.715690   11.394884 C    819 MOH     0.1166 ****
5218 HC2    19.600002   16.970228   11.072444 H    819 MOH     0.0372 ****
5219 HC3    18.410661   18.189666   10.528679 H    819 MOH     0.0372 ****
5220 O1     17.897974   17.084946   12.191794 O    819 MOH    -0.6497 ****
5221 HO1    18.369669   16.715890   12.941327 H    819 MOH     0.4215 ****
5222 HC1    18.695872   30.190124    7.681160 H    820 MOH     0.0372 ****
5223 C1     19.288811   29.851687    6.831924 C    820 MOH     0.1166 ****
5224 HC2    19.656005   28.855969    7.080119 H    820 MOH     0.0372 ****
5225 HC3    20.135783   30.521622    6.679896 H    820 MOH     0.0372 ****
5226 O1     18.484562   29.800656    5.661663 O    820 MOH    -0.6497 ****
5227 HO1    18.891594   29.150316    5.083956 H    820 MOH     0.4215 ****
5228 HC1    14.452347   30.511008   13.343671 H    821 MOH     0.0372 ****
5229 C1     14.633635   29.472832   13.622978 C    821 MOH     0.1166 ****
5230 HC2    13.974301   28.835557   13.033958 H    821 MOH     0.0372 ****
5231 HC3    14.409046   29.318106   14.678688 H    821 MOH     0.0372 ****
5232 O1     15.963850   29.077240   13.381854 O    821 MOH    -0.6497 ****
5233 HO1    16.143406   29.185425   12.444938 H    821 MOH     0.4215 ****
5234 HC1    17.710335   22.123955    9.649745 H    822 MOH     0.0372 ****
5235 C1     18.637559   21.947183   10.193510 C    822 MOH     0.1166 ****
5236 HC2    18.571741   21.022501   10.766974 H    822 MOH     0.0372 ****
5237 HC3    18.860994   22.783684   10.856069 H    822 MOH     0.0372 ****
5238 O1     19.640994   21.845121    9.262957 O    822 MOH    -0.6497 ****
5239 HO1    20.451017   22.186008    9.649745 H    822 MOH     0.4215 ****
5240 HC1    15.613399   22.268066    4.376850 H    823 MOH     0.0372 ****
5241 C1     15.893414   21.359714    4.910715 C    823 MOH     0.1166 ****
5242 HC2    16.701704   20.864100    4.373314 H    823 MOH     0.0372 ****
5243 HC3    15.062607   20.653853    4.934050 H    823 MOH     0.0372 ****
5244 O1     16.331045   21.620993    6.230176 O    823 MOH    -0.6497 ****
5245 HO1    15.983480   20.916356    6.781720 H    823 MOH     0.4215 ****
5246 HC1    26.557073   24.566504   13.802583 H    824 MOH     0.0372 ****
5247 C1     25.547287   24.245621   13.546610 C    824 MOH     0.1166 ****
5248 HC2    24.849848   24.676323   14.265738 H    824 MOH     0.0372 ****
5249 HC3    25.465881   23.159272   13.581259 H    824 MOH     0.0372 ****
5250 O1     25.192217   24.704900   12.274525 O    824 MOH    -0.6497 ****
5251 HO1    25.790929   24.297469   11.645200 H    824 MOH     0.4215 ****
5252 HC1    20.047449   11.780576   16.217353 H    825 MOH     0.0372 ****
5253 C1     20.628840   12.537877   16.744147 C    825 MOH     0.1166 ****
5254 HC2    21.682505   12.293744   16.606969 H    825 MOH     0.0372 ****
5255 HC3    20.399055   12.548491   17.809050 H    825 MOH     0.0372 ****
5256 O1     20.500669   13.798139   16.191897 O    825 MOH    -0.6497 ****
5257 HO1    21.299144   14.274565   16.433020 H    825 MOH     0.4215 ****
5258 HC1    20.267997   11.458060   11.554691 H    826 MOH     0.0372 ****
5259 C1     20.235088   12.543184   11.455696 C    826 MOH     0.1166 ****
5260 HC2    20.680225   13.012261   12.333215 H    826 MOH     0.0372 ****
5261 HC3    19.197589   12.868966   11.380742 H    826 MOH     0.0372 ****
5262 O1     20.920980   12.920405   10.290384 O    826 MOH    -0.6497 ****
5263 HO1    21.022593   13.873665   10.330689 H    826 MOH     0.4215 ****
5264 HC1    28.701352   20.274998   12.737680 H    827 MOH     0.0372 ****
5265 C1     27.795489   20.599556   12.226442 C    827 MOH     0.1166 ****
5266 HC2    26.909834   20.206821   12.725659 H    827 MOH     0.0372 ****
5267 HC3    27.802995   20.251320   11.193359 H    827 MOH     0.0372 ****
5268 O1     27.702536   21.991682   12.240584 O    827 MOH    -0.6497 ****
5269 HO1    27.972736   22.277048   13.116689 H    827 MOH     0.4215 ****
5270 HC1    15.721941   23.801855    9.844906 H    828 MOH     0.0372 ****
5271 C1     15.091474   23.488321   10.676464 C    828 MOH     0.1166 ****
5272 HC2    14.115175   23.175602   10.305940 H    828 MOH     0.0372 ****
5273 HC3    14.921156   24.315432   11.366600 H    828 MOH     0.0372 ****
5274 O1     15.693650   22.434223   11.372257 O    828 MOH    -0.6497 ****
5275 HO1    15.042977   22.079864   11.981783 H    828 MOH     0.4215 ****
5276 HC1     7.722175   18.466458   13.041736 H    829 MOH     0.0372 ****
5277 C1      8.365921   19.250703   12.645049 C    829 MOH     0.1166 ****
5278 HC2     8.399984   20.052095   13.382561 H    829 MOH     0.0372 ****
5279 HC3     7.966972   19.690795   11.730053 H    829 MOH     0.0372 ****
5280 O1      9.677661   18.786117   12.414532 O    829 MOH    -0.6497 ****
5281 HO1    10.119911   19.573219   12.089263 H    829 MOH     0.4215 ****
5282 HC1    14.214479   25.502209    7.884099 H    830 MOH     0.0372 ****
5283 C1     14.081111   24.479547    7.531253 C    830 MOH     0.1166 ****
5284 HC2    13.082295   24.401980    7.102746 H    830 MOH     0.0372 ****
5285 HC3    14.154435   23.762663    8.348668 H    830 MOH     0.0372 ****
5286 O1     15.001407   24.202347    6.519383 O    830 MOH    -0.6497 ****
5287 HO1    15.117455   23.254394    6.427459 H    830 MOH     0.4215 ****
5288 HC1    16.401482   16.227625    6.841824 H    831 MOH     0.0372 ****
5289 C1     15.664783   16.573411    7.566608 C    831 MOH     0.1166 ****
5290 HC2    15.394006   15.765488    8.247552 H    831 MOH     0.0372 ****
5291 HC3    14.756034   16.873065    7.046178 H    831 MOH     0.0372 ****
5292 O1     16.104724   17.654861    8.360689 O    831 MOH    -0.6497 ****
5293 HO1    17.052156   17.586275    8.496454 H    831 MOH     0.4215 ****
5294 HC1    17.350068   32.782909    7.193963 H    832 MOH     0.0372 ****
5295 C1     16.502518   32.118281    7.363669 C    832 MOH     0.1166 ****
5296 HC2    15.637070   32.762089    7.519939 H    832 MOH     0.0372 ****
5297 HC3    16.735190   31.516523    8.241895 H    832 MOH     0.0372 ****
5298 O1     16.369150   31.416502    6.148152 O    832 MOH    -0.6497 ****
5299 HO1    17.214968   31.010703    5.943091 H    832 MOH     0.4215 ****
5300 HC1    15.238698   13.976952   12.604037 H    833 MOH     0.0372 ****
5301 C1     16.273887   14.281097   12.447766 C    833 MOH     0.1166 ****
5302 HC2    16.862785   13.378460   12.280182 H    833 MOH     0.0372 ****
5303 HC3    16.646856   14.837948   13.306194 H    833 MOH     0.0372 ****
5304 O1     16.271578   15.012678   11.271141 O    833 MOH    -0.6497 ****
5305 HO1    16.908973   15.721805   11.380742 H    833 MOH     0.4215 ****
5306 HC1     6.716431   27.472824   13.292759 H    834 MOH     0.0372 ****
5307 C1      6.550154   28.543251   13.411553 C    834 MOH     0.1166 ****
5308 HC2     6.903493   28.864134   14.391603 H    834 MOH     0.0372 ****
5309 HC3     5.483211   28.756356   13.339428 H    834 MOH     0.0372 ****
5310 O1      7.237201   29.257685   12.401804 O    834 MOH    -0.6497 ****
5311 HO1     7.146557   28.727779   11.607016 H    834 MOH     0.4215 ****
5312 HC1     9.194418   27.023751   12.968904 H    835 MOH     0.0372 ****
5313 C1      9.461732   26.019052   13.297709 C    835 MOH     0.1166 ****
5314 HC2    10.406277   25.729604   12.837382 H    835 MOH     0.0372 ****
5315 HC3     8.699052   25.305434   12.987996 H    835 MOH     0.0372 ****
5316 O1      9.629163   26.026808   14.726771 O    835 MOH    -0.6497 ****
5317 HO1     8.800665   26.214603   15.173663 H    835 MOH     0.4215 ****
5318 HC1    20.354022   25.908008    4.993447 H    836 MOH     0.0372 ****
5319 C1     19.429684   26.423217    4.731817 C    836 MOH     0.1166 ****
5320 HC2    18.716656   26.376269    5.555597 H    836 MOH     0.0372 ****
5321 HC3    18.993785   25.977002    3.838741 H    836 MOH     0.0372 ****
5322 O1     19.667552   27.772478    4.452510 O    836 MOH    -0.6497 ****
5323 HO1    20.172156   27.802688    3.636509 H    836 MOH     0.4215 ****
5324 HC1    10.613545   15.688329    5.532969 H    837 MOH     0.0372 ****
5325 C1     11.127387   15.997373    6.443016 C    837 MOH     0.1166 ****
5326 HC2    12.210496   15.971245    6.327050 H    837 MOH     0.0372 ****
5327 HC3    10.824278   15.358056    7.273159 H    837 MOH     0.0372 ****
5328 O1     10.688024   17.254777    6.725858 O    837 MOH    -0.6497 ****
5329 HO1    10.356047   17.616894    5.900665 H    837 MOH     0.4215 ****
5330 HC1     3.990183   25.110291   11.367307 H    838 MOH     0.0372 ****
5331 C1      4.549058   25.742668   12.056736 C    838 MOH     0.1166 ****
5332 HC2     4.594091   26.743284   11.626108 H    838 MOH     0.0372 ****
5333 HC3     5.562308   25.348300   12.137346 H    838 MOH     0.0372 ****
5334 O1      3.883951   25.754915   13.345085 O    838 MOH    -0.6497 ****
5335 HO1     4.351027   25.136827   13.910770 H    838 MOH     0.4215 ****
5336 HC1    12.465108   18.897160    9.266493 H    839 MOH     0.0372 ****
5337 C1     11.582916   19.480547    9.527415 C    839 MOH     0.1166 ****
5338 HC2    11.887180   20.479122    9.838542 H    839 MOH     0.0372 ****
5339 HC3    11.047713   18.990649   10.340588 H    839 MOH     0.0372 ****
5340 O1     10.761924   19.535661    8.359982 O    839 MOH    -0.6497 ****
5341 HO1    10.671280   18.646904    8.007136 H    839 MOH     0.4215 ****
5342 HC1    20.001838    9.904675   14.717579 H    840 MOH     0.0372 ****
5343 C1     20.839573   10.132886   14.057849 C    840 MOH     0.1166 ****
5344 HC2    21.196953   11.134319   14.293315 H    840 MOH     0.0372 ****
5345 HC3    20.489122   10.087979   13.026887 H    840 MOH     0.0372 ****
5346 O1     21.920373    9.191057   14.262203 O    840 MOH    -0.6497 ****
5347 HO1    22.753489    9.579301   13.984310 H    840 MOH     0.4215 ****
5348 HC1    14.195426   20.759997   14.332913 H    841 MOH     0.0372 ****
5349 C1     13.883657   21.803480   14.297558 C    841 MOH     0.1166 ****
5350 HC2    14.689638   22.460760   14.625655 H    841 MOH     0.0372 ****
5351 HC3    13.040726   21.926771   14.976380 H    841 MOH     0.0372 ****
5352 O1     13.430437   22.149674   13.003552 O    841 MOH    -0.6497 ****
5353 HO1    13.219127   23.085379   13.033251 H    841 MOH     0.4215 ****
5354 HC1     9.920725   19.930845   15.149621 H    842 MOH     0.0372 ****
5355 C1     10.692065   19.637723   15.862385 C    842 MOH     0.1166 ****
5356 HC2    11.589845   19.381343   15.299528 H    842 MOH     0.0372 ****
5357 HC3    10.361821   18.749374   16.401200 H    842 MOH     0.0372 ****
5358 O1     10.952450   20.715090   16.771017 O    842 MOH    -0.6497 ****
5359 HO1    10.286188   20.690187   17.461860 H    842 MOH     0.4215 ****
5360 HC1     9.791398   20.541584   21.032750 H    843 MOH     0.0372 ****
5361 C1     10.274641   20.390941   20.067549 C    843 MOH     0.1166 ****
5362 HC2    10.730170   19.401347   20.047750 H    843 MOH     0.0372 ****
5363 HC3    11.035011   21.160081   19.928956 H    843 MOH     0.0372 ****
5364 O1      9.243493   20.440339   19.081135 O    843 MOH    -0.6497 ****
5365 HO1     8.730806   21.241322   19.211243 H    843 MOH     0.4215 ****
5366 HC1     5.491294   21.969229   14.699194 H    844 MOH     0.0372 ****
5367 C1      6.079036   22.884930   14.760713 C    844 MOH     0.1166 ****
5368 HC2     6.544958   23.095586   13.797633 H    844 MOH     0.0372 ****
5369 HC3     6.867697   22.736327   15.497518 H    844 MOH     0.0372 ****
5370 O1      5.297304   24.009654   15.136186 O    844 MOH    -0.6497 ****
5371 HO1     4.897200   23.845538   15.993200 H    844 MOH     0.4215 ****
5372 HC1    19.226457   24.576710   12.249069 H    845 MOH     0.0372 ****
5373 C1     20.008189   25.249912   11.897637 C    845 MOH     0.1166 ****
5374 HC2    20.567641   24.815127   11.069615 H    845 MOH     0.0372 ****
5375 HC3    20.693504   25.454853   12.719295 H    845 MOH     0.0372 ****
5376 O1     19.434303   26.449345   11.452160 O    845 MOH    -0.6497 ****
5377 HO1    19.629447   27.092745   12.138054 H    845 MOH     0.4215 ****
5378 HC1   -10.668509  -26.493354   -1.684328 H    846 MOH     0.0372 ****
5379 C1    -11.704853  -26.354550   -1.377444 C    846 MOH     0.1166 ****
5380 HC2   -12.268347  -25.990393   -2.235872 H    846 MOH     0.0372 ****
5381 HC3   -11.774712  -25.604598   -0.589020 H    846 MOH     0.0372 ****
5382 O1    -12.230242  -27.597258   -0.960251 O    846 MOH    -0.6497 ****
5383 HO1   -12.992921  -27.444981   -0.398101 H    846 MOH     0.4215 ****
5384 HC1     2.197742  -31.046139    1.132785 H    847 MOH     0.0372 ****
5385 C1      2.631332  -30.853038    2.113542 C    847 MOH     0.1166 ****
5386 HC2     2.917120  -29.802207    2.164454 H    847 MOH     0.0372 ****
5387 HC3     3.519296  -31.472351    2.240115 H    847 MOH     0.0372 ****
5388 O1      1.676972  -31.167797    3.121170 O    847 MOH    -0.6497 ****
5389 HO1     1.877889  -32.059412    3.413912 H    847 MOH     0.4215 ****
5390 HC1    -9.618886  -27.944677    2.984698 H    848 MOH     0.0372 ****
5391 C1     -9.014978  -27.393134    3.705240 C    848 MOH     0.1166 ****
5392 HC2    -8.203224  -28.028368    4.058793 H    848 MOH     0.0372 ****
5393 HC3    -9.663342  -27.107360    4.533969 H    848 MOH     0.0372 ****
5394 O1     -8.510374  -26.269226    3.049752 O    848 MOH    -0.6497 ****
5395 HO1    -7.697465  -26.007539    3.488865 H    848 MOH     0.4215 ****
5396 HC1    -2.218411  -26.461103  -10.595995 H    849 MOH     0.0372 ****
5397 C1     -1.680897  -26.118583  -11.480586 C    849 MOH     0.1166 ****
5398 HC2    -2.008832  -26.692580  -12.347498 H    849 MOH     0.0372 ****
5399 HC3    -0.621460  -26.303111  -11.302395 H    849 MOH     0.0372 ****
5400 O1     -1.941282  -24.737887  -11.749286 O    849 MOH    -0.6497 ****
5401 HO1    -1.682052  -24.532946  -12.650140 H    849 MOH     0.4215 ****
5402 HC1   -11.557051  -33.266194    7.369467 H    850 MOH     0.0372 ****
5403 C1    -12.577229  -33.558908    7.617661 C    850 MOH     0.1166 ****
5404 HC2   -12.738310  -33.501345    8.693171 H    850 MOH     0.0372 ****
5405 HC3   -12.785653  -34.581161    7.300878 H    850 MOH     0.0372 ****
5406 O1    -13.463462  -32.666477    7.016621 O    850 MOH    -0.6497 ****
5407 HO1   -13.011974  -32.290072    6.257188 H    850 MOH     0.4215 ****
5408 HC1     1.150428  -28.293321   -1.953736 H    851 MOH     0.0372 ****
5409 C1      1.198926  -29.380895   -2.004648 C    851 MOH     0.1166 ****
5410 HC2     0.820761  -29.735662   -2.962777 H    851 MOH     0.0372 ****
5411 HC3     0.592130  -29.827518   -1.216931 H    851 MOH     0.0372 ****
5412 O1      2.535491  -29.815271   -1.931108 O    851 MOH    -0.6497 ****
5413 HO1     2.503160  -30.774654   -1.909895 H    851 MOH     0.4215 ****
5414 HC1    -7.759818  -29.318024   -7.527152 H    852 MOH     0.0372 ****
5415 C1     -7.714208  -29.772813   -8.517101 C    852 MOH     0.1166 ****
5416 HC2    -6.796798  -30.351709   -8.625995 H    852 MOH     0.0372 ****
5417 HC3    -7.724600  -28.995100   -9.280069 H    852 MOH     0.0372 ****
5418 O1     -8.817524  -30.609314   -8.734183 O    852 MOH    -0.6497 ****
5419 HO1    -8.558294  -31.496846   -8.476796 H    852 MOH     0.4215 ****
5420 HC1   -16.958163  -30.479491    3.573718 H    853 MOH     0.0372 ****
5421 C1    -15.917778  -30.452138    3.247741 C    853 MOH     0.1166 ****
5422 HC2   -15.333499  -31.091863    3.910301 H    853 MOH     0.0372 ****
5423 HC3   -15.576564  -29.418453    3.301482 H    853 MOH     0.0372 ****
5424 O1    -15.850805  -30.934279    1.924745 O    853 MOH    -0.6497 ****
5425 HO1   -16.445476  -31.687089    1.880904 H    853 MOH     0.4215 ****
5426 HC1   -14.077763  -35.161690   -0.586191 H    854 MOH     0.0372 ****
5427 C1    -13.163240  -34.855504   -1.093894 C    854 MOH     0.1166 ****
5428 HC2   -12.567992  -34.201082   -0.456791 H    854 MOH     0.0372 ****
5429 HC3   -13.438636  -34.309268   -1.996162 H    854 MOH     0.0372 ****
5430 O1    -12.461182  -35.994925   -1.491995 O    854 MOH    -0.6497 ****
5431 HO1   -11.526452  -35.796108   -1.402193 H    854 MOH     0.4215 ****
5432 HC1     5.946477  -30.627685    0.299106 H    855 MOH     0.0372 ****
5433 C1      6.029038  -29.687897    0.844993 C    855 MOH     0.1166 ****
5434 HC2     5.202272  -29.032251    0.572050 H    855 MOH     0.0372 ****
5435 HC3     6.986285  -29.225760    0.600334 H    855 MOH     0.0372 ****
5436 O1      5.988046  -30.045931    2.186374 O    855 MOH    -0.6497 ****
5437 HO1     6.212058  -29.302919    2.750646 H    855 MOH     0.4215 ****
5438 HC1    -6.146125  -26.003457    0.042427 H    856 MOH     0.0372 ****
5439 C1     -6.811809  -25.144502    0.127279 C    856 MOH     0.1166 ****
5440 HC2    -7.853927  -25.464569    0.120208 H    856 MOH     0.0372 ****
5441 HC3    -6.676709  -24.519882   -0.755190 H    856 MOH     0.0372 ****
5442 O1     -6.586065  -24.347601    1.330775 O    856 MOH    -0.6497 ****
5443 HO1    -6.658812  -24.914658    2.100814 H    856 MOH     0.4215 ****
5444 HC1   -13.822574  -33.389893   -5.055106 H    857 MOH     0.0372 ****
5445 C1    -14.362974  -32.520324   -5.428459 C    857 MOH     0.1166 ****
5446 HC2   -14.806379  -32.849780   -6.368204 H    857 MOH     0.0372 ****
5447 HC3   -13.640131  -31.717300   -5.574830 H    857 MOH     0.0372 ****
5448 O1    -15.354284  -32.181886   -4.434974 O    857 MOH    -0.6497 ****
5449 HO1   -15.989947  -32.895912   -4.352242 H    857 MOH     0.4215 ****
5450 HC1    -9.205504  -21.749509    2.776101 H    858 MOH     0.0372 ****
5451 C1     -9.659878  -21.451488    1.831407 C    858 MOH     0.1166 ****
5452 HC2   -10.740678  -21.586210    1.879490 H    858 MOH     0.0372 ****
5453 HC3    -9.237258  -22.076108    1.043690 H    858 MOH     0.0372 ****
5454 O1     -9.378131  -20.094062    1.571898 O    858 MOH    -0.6497 ****
5455 HO1    -9.647754  -19.899736    0.671044 H    858 MOH     0.4215 ****
5456 HC1    -8.164541  -18.835841    5.899392 H    859 MOH     0.0372 ****
5457 C1     -8.506333  -19.505368    5.110261 C    859 MOH     0.1166 ****
5458 HC2    -9.004586  -20.381469    5.526040 H    859 MOH     0.0372 ****
5459 HC3    -7.633956  -19.823394    4.539626 H    859 MOH     0.0372 ****
5460 O1     -9.287487  -18.775421    4.188194 O    859 MOH    -0.6497 ****
5461 HO1    -9.260352  -19.262461    3.361586 H    859 MOH     0.4215 ****
5462 HC1    -2.634680  -27.505402    2.858833 H    860 MOH     0.0372 ****
5463 C1     -2.152015  -28.471317    2.711755 C    860 MOH     0.1166 ****
5464 HC2    -2.925087  -29.225352    2.563969 H    860 MOH     0.0372 ****
5465 HC3    -1.587367  -28.713817    3.611195 H    860 MOH     0.0372 ****
5466 O1     -1.243843  -28.443557    1.588869 O    860 MOH    -0.6497 ****
5467 HO1    -0.532548  -27.839349    1.817972 H    860 MOH     0.4215 ****
5468 HC1    -0.070090  -24.233700   10.994804 H    861 MOH     0.0372 ****
5469 C1     -0.781386  -25.059586   10.984197 C    861 MOH     0.1166 ****
5470 HC2    -0.419387  -25.790759   10.260827 H    861 MOH     0.0372 ****
5471 HC3    -1.770387  -24.687264   10.714082 H    861 MOH     0.0372 ****
5472 O1     -0.844895  -25.633175   12.269010 O    861 MOH    -0.6497 ****
5473 HO1    -1.120868  -24.949359   12.883486 H    861 MOH     0.4215 ****
5474 HC1    -4.140410  -22.703994   -6.013236 H    862 MOH     0.0372 ****
5475 C1     -4.721224  -22.322690   -5.173193 C    862 MOH     0.1166 ****
5476 HC2    -4.423889  -21.315541   -4.881158 H    862 MOH     0.0372 ****
5477 HC3    -4.513378  -22.977928   -4.326786 H    862 MOH     0.0372 ****
5478 O1     -6.100514  -22.366373   -5.458157 O    862 MOH    -0.6497 ****
5479 HO1    -6.505814  -23.041207   -4.908735 H    862 MOH     0.4215 ****
5480 HC1    -5.207930  -31.701786   -0.236174 H    863 MOH     0.0372 ****
5481 C1     -6.271410  -31.500928   -0.367695 C    863 MOH     0.1166 ****
5482 HC2    -6.853379  -32.421936   -0.340825 H    863 MOH     0.0372 ****
5483 HC3    -6.436532  -31.030218   -1.337139 H    863 MOH     0.0372 ****
5484 O1     -6.721743  -30.610538    0.611648 O    863 MOH    -0.6497 ****
5485 HO1    -6.611469  -29.716066    0.281429 H    863 MOH     0.4215 ****
5486 HC1    -1.494991  -28.774238   -3.032781 H    864 MOH     0.0372 ****
5487 C1     -1.899136  -28.428451   -3.983839 C    864 MOH     0.1166 ****
5488 HC2    -2.832134  -28.951826   -4.195971 H    864 MOH     0.0372 ****
5489 HC3    -1.178025  -28.573380   -4.787820 H    864 MOH     0.0372 ****
5490 O1     -2.145665  -27.062453   -3.829690 O    864 MOH    -0.6497 ****
5491 HO1    -1.321208  -26.606848   -3.641600 H    864 MOH     0.4215 ****
5492 HC1    -6.297390  -28.102261   -5.496341 H    865 MOH     0.0372 ****
5493 C1     -6.534681  -28.388851   -4.471036 C    865 MOH     0.1166 ****
5494 HC2    -5.772579  -29.051438   -4.061621 H    865 MOH     0.0372 ****
5495 HC3    -7.487887  -28.917533   -4.490128 H    865 MOH     0.0372 ****
5496 O1     -6.636295  -27.262494   -3.633115 O    865 MOH    -0.6497 ****
5497 HO1    -5.862646  -26.706052   -3.752616 H    865 MOH     0.4215 ****
5498 HC1     0.744551  -26.886906   -4.699431 H    866 MOH     0.0372 ****
5499 C1      1.164862  -26.003457   -4.218599 C    866 MOH     0.1166 ****
5500 HC2     1.418319  -25.261669   -4.975910 H    866 MOH     0.0372 ****
5501 HC3     2.051672  -26.286373   -3.652206 H    866 MOH     0.0372 ****
5502 O1      0.159695  -25.507027   -3.395527 O    866 MOH    -0.6497 ****
5503 HO1     0.515920  -25.310659   -2.526492 H    866 MOH     0.4215 ****
5504 HC1    -4.904244  -24.579078    7.876463 H    867 MOH     0.0372 ****
5505 C1     -4.946968  -23.705019    7.226631 C    867 MOH     0.1166 ****
5506 HC2    -4.146183  -23.004873    7.464926 H    867 MOH     0.0372 ****
5507 HC3    -5.886317  -23.188993    7.421793 H    867 MOH     0.0372 ****
5508 O1     -4.946391  -24.059378    5.835045 O    867 MOH    -0.6497 ****
5509 HO1    -4.837272  -23.266968    5.304008 H    867 MOH     0.4215 ****
5510 HC1   -10.590567  -28.848539   -3.509371 H    868 MOH     0.0372 ****
5511 C1    -11.173113  -29.721374   -3.213800 C    868 MOH     0.1166 ****
5512 HC2   -10.837095  -30.636258   -3.700997 H    868 MOH     0.0372 ****
5513 HC3   -12.193291  -29.541336   -3.551090 H    868 MOH     0.0372 ****
5514 O1    -11.180042  -29.868343   -1.810900 O    868 MOH    -0.6497 ****
5515 HO1   -11.366526  -29.006531   -1.429770 H    868 MOH     0.4215 ****
5516 HC1   -11.421374  -31.863044    0.761554 H    869 MOH     0.0372 ****
5517 C1    -10.389649  -32.146777    0.555786 C    869 MOH     0.1166 ****
5518 HC2   -10.118872  -32.972663    1.212688 H    869 MOH     0.0372 ****
5519 HC3    -9.741285  -31.295987    0.766504 H    869 MOH     0.0372 ****
5520 O1    -10.251662  -32.466027   -0.806102 O    869 MOH    -0.6497 ****
5521 HO1   -10.548420  -31.673209   -1.258650 H    869 MOH     0.4215 ****
5522 HC1    -5.927309  -32.590543   -4.924999 H    870 MOH     0.0372 ****
5523 C1     -5.912875  -31.883048   -5.754435 C    870 MOH     0.1166 ****
5524 HC2    -6.903608  -31.451938   -5.895856 H    870 MOH     0.0372 ****
5525 HC3    -5.573970  -32.376212   -6.665188 H    870 MOH     0.0372 ****
5526 O1     -5.035880  -30.831401   -5.447550 O    870 MOH    -0.6497 ****
5527 HO1    -4.839581  -30.824461   -4.507806 H    870 MOH     0.4215 ****
5528 HC1   -12.130937  -28.108385    1.958686 H    871 MOH     0.0372 ****
5529 C1    -12.370538  -28.741170    2.812871 C    871 MOH     0.1166 ****
5530 HC2   -13.416119  -28.616654    3.093592 H    871 MOH     0.0372 ****
5531 HC3   -11.738339  -28.433759    3.646550 H    871 MOH     0.0372 ****
5532 O1    -12.068584  -30.091247    2.496794 O    871 MOH    -0.6497 ****
5533 HO1   -12.531041  -30.364365    1.701299 H    871 MOH     0.4215 ****
5534 HC1    -1.173407  -27.952026   -7.573821 H    872 MOH     0.0372 ****
5535 C1     -0.429779  -28.472950   -8.176276 C    872 MOH     0.1166 ****
5536 HC2     0.485898  -27.883440   -8.224359 H    872 MOH     0.0372 ****
5537 HC3    -0.765797  -28.594200   -9.206530 H    872 MOH     0.0372 ****
5538 O1     -0.091452  -29.701778   -7.592205 O    872 MOH    -0.6497 ****
5539 HO1    -0.795242  -29.973263   -6.998943 H    872 MOH     0.4215 ****
5540 HC1    -1.422822  -32.804465   -5.541596 H    873 MOH     0.0372 ****
5541 C1     -2.359861  -32.548493   -6.034449 C    873 MOH     0.1166 ****
5542 HC2    -3.198174  -32.880399   -5.421388 H    873 MOH     0.0372 ****
5543 HC3    -2.378337  -33.047373   -7.003185 H    873 MOH     0.0372 ****
5544 O1     -2.390461  -31.164940   -6.251531 O    873 MOH    -0.6497 ****
5545 HO1    -3.306716  -30.923665   -6.403559 H    873 MOH     0.4215 ****
5546 HC1   -11.369412  -33.506652    3.700290 H    874 MOH     0.0372 ****
5547 C1    -12.379198  -33.107385    3.792214 C    874 MOH     0.1166 ****
5548 HC2   -12.991767  -33.848764    4.305573 H    874 MOH     0.0372 ****
5549 HC3   -12.780457  -32.915508    2.796607 H    874 MOH     0.0372 ****
5550 O1    -12.311071  -31.918566    4.554475 O    874 MOH    -0.6497 ****
5551 HO1   -11.976785  -31.225360    3.980304 H    874 MOH     0.4215 ****
5552 HC1   -15.625639  -26.270451    2.124149 H    875 MOH     0.0372 ****
5553 C1    -14.763077  -25.807497    1.644730 C    875 MOH     0.1166 ****
5554 HC2   -13.976149  -25.692780    2.390728 H    875 MOH     0.0372 ****
5555 HC3   -15.080043  -24.815454    1.322290 H    875 MOH     0.0372 ****
5556 O1    -14.380294  -26.595008    0.485782 O    875 MOH    -0.6497 ****
5557 HO1   -15.074269  -26.548876   -0.175362 H    875 MOH     0.4215 ****
5558 HC1    -8.939345  -30.833034    8.384872 H    876 MOH     0.0372 ****
5559 C1     -8.331395  -29.962240    8.136678 C    876 MOH     0.1166 ****
5560 HC2    -7.281773  -30.231684    8.022127 H    876 MOH     0.0372 ****
5561 HC3    -8.387976  -29.240049    8.951972 H    876 MOH     0.0372 ****
5562 O1     -8.726303  -29.400082    6.926818 O    876 MOH    -0.6497 ****
5563 HO1    -8.444556  -29.998574    6.231025 H    876 MOH     0.4215 ****
5564 HC1    -7.466525  -33.838966  -12.324164 H    877 MOH     0.0372 ****
5565 C1     -6.542764  -33.650764  -12.872172 C    877 MOH     0.1166 ****
5566 HC2    -5.952135  -34.565648  -12.834695 H    877 MOH     0.0372 ****
5567 HC3    -6.020262  -32.827327  -12.384975 H    877 MOH     0.0372 ****
5568 O1     -6.815851  -33.298445  -14.226281 O    877 MOH    -0.6497 ****
5569 HO1    -6.034118  -32.876317  -14.589734 H    877 MOH     0.4215 ****
5570 HC1    -3.358677  -24.583161   -2.303047 H    878 MOH     0.0372 ****
5571 C1     -4.373659  -24.966506   -2.406991 C    878 MOH     0.1166 ****
5572 HC2    -5.094770  -24.149193   -2.385778 H    878 MOH     0.0372 ****
5573 HC3    -4.608641  -25.661344   -1.600890 H    878 MOH     0.0372 ****
5574 O1     -4.501254  -25.678491   -3.589274 O    878 MOH    -0.6497 ****
5575 HO1    -3.780720  -26.311684   -3.621094 H    878 MOH     0.4215 ****
5576 HC1    -0.484628  -32.865294    4.956819 H    879 MOH     0.0372 ****
5577 C1     -1.107011  -31.970822    4.947626 C    879 MOH     0.1166 ****
5578 HC2    -0.663029  -31.183719    5.557152 H    879 MOH     0.0372 ****
5579 HC3    -2.078692  -32.248839    5.357041 H    879 MOH     0.0372 ****
5580 O1     -1.286567  -31.518074    3.626044 O    879 MOH    -0.6497 ****
5581 HO1    -0.429202  -31.242507    3.292996 H    879 MOH     0.4215 ****
5582 HC1    -4.500676  -27.218403   -6.523767 H    880 MOH     0.0372 ****
5583 C1     -3.907737  -27.556841   -7.373002 C    880 MOH     0.1166 ****
5584 HC2    -3.540543  -28.552559   -7.124808 H    880 MOH     0.0372 ****
5585 HC3    -3.060765  -26.886906   -7.525030 H    880 MOH     0.0372 ****
5586 O1     -4.711986  -27.607872   -8.543264 O    880 MOH    -0.6497 ****
5587 HO1    -4.304954  -28.258212   -9.120970 H    880 MOH     0.4215 ****
5588 HC1    -8.744201  -26.897520   -0.861256 H    881 MOH     0.0372 ****
5589 C1     -8.562913  -27.935696   -0.581949 C    881 MOH     0.1166 ****
5590 HC2    -9.222247  -28.572971   -1.170969 H    881 MOH     0.0372 ****
5591 HC3    -8.787502  -28.090422    0.473762 H    881 MOH     0.0372 ****
5592 O1     -7.232698  -28.331288   -0.823072 O    881 MOH    -0.6497 ****
5593 HO1    -7.053142  -28.223102   -1.759989 H    881 MOH     0.4215 ****
5594 HC1    -4.855747  -32.685665    2.797315 H    882 MOH     0.0372 ****
5595 C1     -4.401949  -31.806298    3.254106 C    882 MOH     0.1166 ****
5596 HC2    -3.564792  -31.489497    2.631852 H    882 MOH     0.0372 ****
5597 HC3    -4.098263  -32.055329    4.270925 H    882 MOH     0.0372 ****
5598 O1     -5.352268  -30.808539    3.218750 O    882 MOH    -0.6497 ****
5599 HO1    -5.680203  -30.753017    2.317896 H    882 MOH     0.4215 ****
5600 HC1   -13.022944  -21.213071    0.468105 H    883 MOH     0.0372 ****
5601 C1    -13.930538  -21.276758    1.067731 C    883 MOH     0.1166 ****
5602 HC2   -14.541375  -22.123465    0.755190 H    883 MOH     0.0372 ****
5603 HC3   -14.479598  -20.344727    0.935502 H    883 MOH     0.0372 ****
5604 O1    -13.558725  -21.460061    2.392142 O    883 MOH    -0.6497 ****
5605 HO1   -13.031604  -22.262677    2.390728 H    883 MOH     0.4215 ****
5606 HC1     2.507201  -29.366606    8.174155 H    884 MOH     0.0372 ****
5607 C1      2.254322  -28.501936    8.787923 C    884 MOH     0.1166 ****
5608 HC2     3.062035  -28.318633    9.495737 H    884 MOH     0.0372 ****
5609 HC3     1.336335  -28.734638    9.326739 H    884 MOH     0.0372 ****
5610 O1      2.062064  -27.393542    7.931617 O    884 MOH    -0.6497 ****
5611 HO1     1.376749  -27.664619    7.316434 H    884 MOH     0.4215 ****
5612 HC1    -3.892727  -33.438883   12.058292 H    885 MOH     0.0372 ****
5613 C1     -4.784155  -32.812221   12.026472 C    885 MOH     0.1166 ****
5614 HC2    -5.672697  -33.442965   11.986167 H    885 MOH     0.0372 ****
5615 HC3    -4.774918  -32.194134   11.128447 H    885 MOH     0.0372 ****
5616 O1     -4.773763  -31.964698   13.147944 O    885 MOH    -0.6497 ****
5617 HO1    -4.018012  -31.384577   13.031271 H    885 MOH     0.4215 ****
5618 HC1    -2.235731  -32.176987   10.644786 H    886 MOH     0.0372 ****
5619 C1     -2.011142  -31.111051   10.694990 C    886 MOH     0.1166 ****
5620 HC2    -2.370254  -30.563182    9.823835 H    886 MOH     0.0372 ****
5621 HC3    -0.925146  -31.064510   10.622865 H    886 MOH     0.0372 ****
5622 O1     -2.371986  -30.512967   11.961418 O    886 MOH    -0.6497 ****
5623 HO1    -2.444155  -29.564198   11.835553 H    886 MOH     0.4215 ****
5624 HC1    -7.993645  -34.270893    7.094402 H    887 MOH     0.0372 ****
5625 C1     -7.648390  -35.113925    6.496897 C    887 MOH     0.1166 ****
5626 HC2    -6.908227  -35.645873    7.095817 H    887 MOH     0.0372 ****
5627 HC3    -7.206717  -34.728131    5.578366 H    887 MOH     0.0372 ****
5628 O1     -8.700900  -36.031667    6.163143 O    887 MOH    -0.6497 ****
5629 HO1    -8.422039  -36.544836    5.401589 H    887 MOH     0.4215 ****
5630 HC1    -0.836234  -25.733604    0.871863 H    888 MOH     0.0372 ****
5631 C1     -1.328714  -25.297187    0.002829 C    888 MOH     0.1166 ****
5632 HC2    -2.270950  -24.809739    0.253144 H    888 MOH     0.0372 ****
5633 HC3    -1.581016  -26.131646   -0.651952 H    888 MOH     0.0372 ****
5634 O1     -0.490979  -24.372096   -0.697207 O    888 MOH    -0.6497 ****
5635 HO1    -1.031956  -23.672359   -1.069145 H    888 MOH     0.4215 ****
5636 HC1    -1.960912  -32.569722    0.517602 H    889 MOH     0.0372 ****
5637 C1     -1.297537  -33.391526    0.787010 C    889 MOH     0.1166 ****
5638 HC2    -0.281401  -33.005323    0.864792 H    889 MOH     0.0372 ****
5639 HC3    -1.311393  -34.174138    0.028284 H    889 MOH     0.0372 ****
5640 O1     -1.675701  -33.818554    2.073944 O    889 MOH    -0.6497 ****
5641 HO1    -1.622008  -33.049414    2.645287 H    889 MOH     0.4215 ****
5642 HC1     1.819000  -26.370472    4.620943 H    890 MOH     0.0372 ****
5643 C1      1.479518  -27.116341    3.901815 C    890 MOH     0.1166 ****
5644 HC2     0.973182  -27.953659    4.383355 H    890 MOH     0.0372 ****
5645 HC3     2.366328  -27.513159    3.406841 H    890 MOH     0.0372 ****
5646 O1      0.638318  -26.495804    2.947221 O    890 MOH    -0.6497 ****
5647 HO1     1.167749  -25.810763    2.531442 H    890 MOH     0.4215 ****
5648 HC1    -7.474607  -33.606673   -4.360020 H    891 MOH     0.0372 ****
5649 C1     -8.105074  -33.920207   -3.528463 C    891 MOH     0.1166 ****
5650 HC2    -9.081373  -34.232926   -3.898987 H    891 MOH     0.0372 ****
5651 HC3    -8.275392  -33.093096   -2.838326 H    891 MOH     0.0372 ****
5652 O1     -7.502898  -34.974304   -2.832670 O    891 MOH    -0.6497 ****
5653 HO1    -8.153571  -35.328664   -2.223144 H    891 MOH     0.4215 ****
5654 HC1    -4.812445  -28.874258   -1.216224 H    892 MOH     0.0372 ****
5655 C1     -4.155998  -28.598691   -0.391030 C    892 MOH     0.1166 ****
5656 HC2    -4.702749  -28.634617    0.552251 H    892 MOH     0.0372 ****
5657 HC3    -3.809588  -27.576029   -0.541644 H    892 MOH     0.0372 ****
5658 O1     -3.037093  -29.470709   -0.325976 O    892 MOH    -0.6497 ****
5659 HO1    -2.432030  -29.144111    0.344361 H    892 MOH     0.4215 ****
5660 HC1    -1.035997  -24.159399    6.551344 H    893 MOH     0.0372 ****
5661 C1     -1.347767  -24.578262    7.508767 C    893 MOH     0.1166 ****
5662 HC2    -1.874887  -23.831984    8.101323 H    893 MOH     0.0372 ****
5663 HC3    -0.455183  -24.911801    8.036976 H    893 MOH     0.0372 ****
5664 O1     -2.162408  -25.692371    7.281786 O    893 MOH    -0.6497 ****
5665 HO1    -2.848300  -25.451097    6.655996 H    893 MOH     0.4215 ****
5666 HC1    -8.356221  -18.765214   -1.168140 H    894 MOH     0.0372 ****
5667 C1     -9.263816  -18.385543   -1.637659 C    894 MOH     0.1166 ****
5668 HC2    -9.133335  -18.405548   -2.720240 H    894 MOH     0.0372 ****
5669 HC3    -9.406999  -17.354716   -1.315926 H    894 MOH     0.0372 ****
5670 O1    -10.404083  -19.178770   -1.263600 O    894 MOH    -0.6497 ****
5671 HO1   -11.177155  -18.673767   -1.525936 H    894 MOH     0.4215 ****
5672 HC1    -6.198663  -27.235142    5.343606 H    895 MOH     0.0372 ****
5673 C1     -5.616694  -26.992642    4.454066 C    895 MOH     0.1166 ****
5674 HC2    -5.653067  -27.814446    3.739181 H    895 MOH     0.0372 ****
5675 HC3    -4.589588  -26.849347    4.791356 H    895 MOH     0.0372 ****
5676 O1     -6.082616  -25.748301    3.922321 O    895 MOH    -0.6497 ****
5677 HO1    -5.666924  -25.071017    4.460430 H    895 MOH     0.4215 ****
5678 HC1    -8.704364  -31.801399    3.015103 H    896 MOH     0.0372 ****
5679 C1     -8.541551  -32.025527    4.069400 C    896 MOH     0.1166 ****
5680 HC2    -7.974016  -32.952251    4.161324 H    896 MOH     0.0372 ****
5681 HC3    -9.525356  -32.143103    4.523362 H    896 MOH     0.0372 ****
5682 O1     -7.848731  -30.948976    4.661248 O    896 MOH    -0.6497 ****
5683 HO1    -7.010418  -30.858345    4.203043 H    896 MOH     0.4215 ****
5684 HC1    -8.982069  -31.906319   -6.320827 H    897 MOH     0.0372 ****
5685 C1     -9.115437  -32.928981   -6.673674 C    897 MOH     0.1166 ****
5686 HC2   -10.114253  -33.006548   -7.102180 H    897 MOH     0.0372 ****
5687 HC3    -9.042113  -33.645865   -5.856258 H    897 MOH     0.0372 ****
5688 O1     -8.195141  -33.206181   -7.685543 O    897 MOH    -0.6497 ****
5689 HO1    -8.079093  -34.154134   -7.777467 H    897 MOH     0.4215 ****
5690 HC1    -5.846480  -24.625619   -7.010964 H    898 MOH     0.0372 ****
5691 C1     -6.694030  -25.290247   -6.841258 C    898 MOH     0.1166 ****
5692 HC2    -7.559478  -24.646439   -6.684987 H    898 MOH     0.0372 ****
5693 HC3    -6.461358  -25.892005   -5.963031 H    898 MOH     0.0372 ****
5694 O1     -6.827398  -25.992026   -8.056775 O    898 MOH    -0.6497 ****
5695 HO1    -5.981580  -26.397824   -8.261836 H    898 MOH     0.4215 ****
5696 HC1    -4.429085  -29.243315    7.570285 H    899 MOH     0.0372 ****
5697 C1     -4.365576  -30.166364    6.993993 C    899 MOH     0.1166 ****
5698 HC2    -3.333851  -30.370488    6.708322 H    899 MOH     0.0372 ****
5699 HC3    -4.982764  -30.054504    6.103039 H    899 MOH     0.0372 ****
5700 O1     -4.883460  -31.219645    7.759083 O    899 MOH    -0.6497 ****
5701 HO1    -4.633467  -32.044306    7.334819 H    899 MOH     0.4215 ****
5702 HC1   -16.480117  -29.935704   -0.912168 H    900 MOH     0.0372 ****
5703 C1    -16.646394  -28.865277   -0.793374 C    900 MOH     0.1166 ****
5704 HC2   -16.293056  -28.544394    0.186676 H    900 MOH     0.0372 ****
5705 HC3   -17.713337  -28.652171   -0.865499 H    900 MOH     0.0372 ****
5706 O1    -15.959347  -28.150843   -1.803122 O    900 MOH    -0.6497 ****
5707 HO1   -16.049991  -28.680749   -2.597910 H    900 MOH     0.4215 ****
5708 HC1    -9.816918  -23.619695   -3.761101 H    901 MOH     0.0372 ****
5709 C1     -8.945696  -24.274933   -3.780193 C    901 MOH     0.1166 ****
5710 HC2    -8.946273  -24.846481   -4.707917 H    901 MOH     0.0372 ****
5711 HC3    -8.973409  -24.984061   -2.952171 H    901 MOH     0.0372 ****
5712 O1     -7.767324  -23.490280   -3.706654 O    901 MOH    -0.6497 ****
5713 HO1    -7.796769  -22.979561   -2.894188 H    901 MOH     0.4215 ****
5714 HC1   -14.002130  -30.384777   -1.236023 H    902 MOH     0.0372 ****
5715 C1    -13.734816  -31.389476   -0.907218 C    902 MOH     0.1166 ****
5716 HC2   -12.790271  -31.678924   -1.367544 H    902 MOH     0.0372 ****
5717 HC3   -14.497496  -32.103094   -1.216931 H    902 MOH     0.0372 ****
5718 O1    -13.567385  -31.381719    0.521845 O    902 MOH    -0.6497 ****
5719 HO1   -14.395883  -31.193925    0.968736 H    902 MOH     0.4215 ****
5720 HC1     3.132472  -30.569305    6.126373 H    903 MOH     0.0372 ****
5721 C1      3.990991  -30.207597    5.560688 C    903 MOH     0.1166 ****
5722 HC2     3.642849  -29.688306    4.668319 H    903 MOH     0.0372 ****
5723 HC3     4.620303  -31.048181    5.267239 H    903 MOH     0.0372 ****
5724 O1      4.740392  -29.318024    6.356183 O    903 MOH    -0.6497 ****
5725 HO1     4.907824  -29.736479    7.204004 H    903 MOH     0.4215 ****
5726 HC1     3.931524  -29.248214   -3.805648 H    904 MOH     0.0372 ****
5727 C1      3.484655  -28.834250   -4.709331 C    904 MOH     0.1166 ****
5728 HC2     2.456972  -28.515408   -4.537504 H    904 MOH     0.0372 ****
5729 HC3     3.515255  -29.606656   -5.478663 H    904 MOH     0.0372 ****
5730 O1      4.295255  -27.769947   -5.097533 O    904 MOH    -0.6497 ****
5731 HO1     4.477120  -27.223711   -4.329615 H    904 MOH     0.4215 ****
5732 HC1    -2.842526  -31.500520   -9.211480 H    905 MOH     0.0372 ****
5733 C1     -3.766864  -30.985310   -9.473109 C    905 MOH     0.1166 ****
5734 HC2    -4.479892  -31.032259   -8.649330 H    905 MOH     0.0372 ****
5735 HC3    -4.202763  -31.431526  -10.366185 H    905 MOH     0.0372 ****
5736 O1     -3.528996  -29.636050   -9.752417 O    905 MOH    -0.6497 ****
5737 HO1    -3.024392  -29.605839  -10.568418 H    905 MOH     0.4215 ****
5738 HC1   -11.120574  -24.307185    0.840750 H    906 MOH     0.0372 ****
5739 C1    -11.491233  -24.704002    1.785445 C    906 MOH     0.1166 ****
5740 HC2   -10.636755  -24.826885    2.450832 H    906 MOH     0.0372 ****
5741 HC3   -11.962929  -25.679716    1.669479 H    906 MOH     0.0372 ****
5742 O1    -12.346289  -23.768705    2.347595 O    906 MOH    -0.6497 ****
5743 HO1   -12.161537  -23.767072    3.289461 H    906 MOH     0.4215 ****
5744 HC1   -11.832447  -28.982036    6.578922 H    907 MOH     0.0372 ****
5745 C1    -11.898843  -29.242498    7.635339 C    907 MOH     0.1166 ****
5746 HC2   -11.790878  -30.320682    7.759083 H    907 MOH     0.0372 ****
5747 HC3   -12.882648  -28.927739    7.983943 H    907 MOH     0.0372 ****
5748 O1    -10.915038  -28.523573    8.358709 O    907 MOH    -0.6497 ****
5749 HO1   -10.092314  -28.632575    7.875755 H    907 MOH     0.4215 ****
5750 HC1    -4.285902  -26.421094   11.427553 H    908 MOH     0.0372 ****
5751 C1     -3.848271  -27.324548   11.002582 C    908 MOH     0.1166 ****
5752 HC2    -3.604629  -27.129405    9.958892 H    908 MOH     0.0372 ****
5753 HC3    -4.553793  -28.150842   11.095920 H    908 MOH     0.0372 ****
5754 O1     -2.712045  -27.622161   11.749994 O    908 MOH    -0.6497 ****
5755 HO1    -2.084466  -26.896295   11.701910 H    908 MOH     0.4215 ****
5756 HC1    -7.505785  -33.618920   10.794692 H    909 MOH     0.0372 ****
5757 C1     -7.916281  -34.575446   11.117840 C    909 MOH     0.1166 ****
5758 HC2    -7.137435  -35.338054   11.139053 H    909 MOH     0.0372 ****
5759 HC3    -8.701477  -34.854279   10.415683 H    909 MOH     0.0372 ****
5760 O1     -8.512106  -34.430926   12.373662 O    909 MOH    -0.6497 ****
5761 HO1    -7.891455  -33.981853   12.952075 H    909 MOH     0.4215 ****
5762 HC1   -11.122884  -22.893421   -2.234457 H    910 MOH     0.0372 ****
5763 C1    -10.556503  -22.588460   -1.354109 C    910 MOH     0.1166 ****
5764 HC2   -10.170833  -23.482115   -0.862670 H    910 MOH     0.0372 ****
5765 HC3   -11.210641  -22.064677   -0.657609 H    910 MOH     0.0372 ****
5766 O1     -9.461847  -21.774004   -1.759282 O    910 MOH    -0.6497 ****
5767 HO1    -9.812876  -20.898720   -1.936058 H    910 MOH     0.4215 ****
5768 HC1    -9.001122  -36.648531    0.127986 H    911 MOH     0.0372 ****
5769 C1     -9.312891  -35.605048    0.092631 C    911 MOH     0.1166 ****
5770 HC2    -8.506910  -34.947768    0.420729 H    911 MOH     0.0372 ****
5771 HC3   -10.155822  -35.481757    0.771454 H    911 MOH     0.0372 ****
5772 O1     -9.766111  -35.258854   -1.201374 O    911 MOH    -0.6497 ****
5773 HO1    -9.977421  -34.323148   -1.171676 H    911 MOH     0.4215 ****
5774 HC1    -2.305013  -28.635025    7.625440 H    912 MOH     0.0372 ****
5775 C1     -1.379521  -28.335371    8.119000 C    912 MOH     0.1166 ****
5776 HC2    -0.935538  -29.189426    8.630946 H    912 MOH     0.0372 ****
5777 HC3    -1.625472  -27.583377    8.868533 H    912 MOH     0.0372 ****
5778 O1     -0.497330  -27.836083    7.092988 O    912 MOH    -0.6497 ****
5779 HO1    -0.687855  -26.897928    7.018035 H    912 MOH     0.4215 ****
5780 HC1    -3.888108  -24.766056    2.973384 H    913 MOH     0.0372 ****
5781 C1     -2.942408  -24.423127    3.393406 C    913 MOH     0.1166 ****
5782 HC2    -3.056146  -23.448639    3.869288 H    913 MOH     0.0372 ****
5783 HC3    -2.212637  -24.309634    2.591546 H    913 MOH     0.0372 ****
5784 O1     -2.500735  -25.345360    4.365677 O    913 MOH    -0.6497 ****
5785 HO1    -1.669351  -25.733604    4.083542 H    913 MOH     0.4215 ****
5786 HC1    -3.970091  -32.831817   -1.955857 H    914 MOH     0.0372 ****
5787 C1     -3.188359  -32.158616   -2.307289 C    914 MOH     0.1166 ****
5788 HC2    -2.628907  -32.593400   -3.135311 H    914 MOH     0.0372 ****
5789 HC3    -2.503044  -31.953675   -1.485631 H    914 MOH     0.0372 ****
5790 O1     -3.762245  -30.959183   -2.752767 O    914 MOH    -0.6497 ****
5791 HO1    -3.567101  -30.315783   -2.066873 H    914 MOH     0.4215 ****
5792 HC1    -4.571806  -20.631889    2.406992 H    915 MOH     0.0372 ****
5793 C1     -5.372591  -21.025848    3.032781 C    915 MOH     0.1166 ****
5794 HC2    -5.938394  -21.756205    2.453661 H    915 MOH     0.0372 ****
5795 HC3    -6.045204  -20.248952    3.394113 H    915 MOH     0.0372 ****
5796 O1     -4.875492  -21.766819    4.077178 O    915 MOH    -0.6497 ****
5797 HO1    -4.331051  -21.170777    4.596194 H    915 MOH     0.4215 ****
5798 HC1     7.537539  -19.392855    6.913383 H    916 MOH     0.0372 ****
5799 C1      7.598738  -18.613101    7.671402 C    916 MOH     0.1166 ****
5800 HC2     7.959004  -19.058908    8.599126 H    916 MOH     0.0372 ****
5801 HC3     6.605695  -18.187706    7.817066 H    916 MOH     0.0372 ****
5802 O1      8.469959  -17.590439    7.243602 O    916 MOH    -0.6497 ****
5803 HO1     9.356769  -17.950514    7.177134 H    916 MOH     0.4215 ****
5804 HC1    13.796016  -14.643703    1.132785 H    917 MOH     0.0372 ****
5805 C1     14.229606  -14.450601    2.113542 C    917 MOH     0.1166 ****
5806 HC2    14.515394  -13.399770    2.164454 H    917 MOH     0.0372 ****
5807 HC3    15.117570  -15.069914    2.240115 H    917 MOH     0.0372 ****
5808 O1     13.275246  -14.765361    3.121170 O    917 MOH    -0.6497 ****
5809 HO1    13.476164  -15.656975    3.413912 H    917 MOH     0.4215 ****
5810 HC1     7.158797  -25.497392   -6.499725 H    918 MOH     0.0372 ****
5811 C1      6.971735  -26.483312   -6.074754 C    918 MOH     0.1166 ****
5812 HC2     6.579715  -26.388598   -5.062177 H    918 MOH     0.0372 ****
5813 HC3     7.928982  -26.999746   -6.006165 H    918 MOH     0.0372 ****
5814 O1      6.130536  -27.287152   -6.923989 O    918 MOH    -0.6497 ****
5815 HO1     5.414622  -27.633347   -6.386588 H    918 MOH     0.4215 ****
5816 HC1     9.789205  -25.025457    0.137179 H    919 MOH     0.0372 ****
5817 C1      8.940500  -24.590672    0.665388 C    919 MOH     0.1166 ****
5818 HC2     8.804245  -23.563520    0.327391 H    919 MOH     0.0372 ****
5819 HC3     9.105045  -24.602920    1.743018 H    919 MOH     0.0372 ****
5820 O1      7.774830  -25.288777    0.331633 O    919 MOH    -0.6497 ****
5821 HO1     7.801965  -26.089352    0.861256 H    919 MOH     0.4215 ****
5822 HC1    17.865758  -16.255059   -3.482501 H    920 MOH     0.0372 ****
5823 C1     17.671191  -15.513680   -2.707512 C    920 MOH     0.1166 ****
5824 HC2    16.607134  -15.471630   -2.474873 H    920 MOH     0.0372 ****
5825 HC3    17.972567  -14.525311   -3.054701 H    920 MOH     0.0372 ****
5826 O1     18.340917  -15.843953   -1.496238 O    920 MOH    -0.6497 ****
5827 HO1    18.123256  -16.738425   -1.224002 H    920 MOH     0.4215 ****
5828 HC1     8.683579  -17.949698   -9.476645 H    921 MOH     0.0372 ****
5829 C1      7.891455  -18.482053   -8.950557 C    921 MOH     0.1166 ****
5830 HC2     7.918590  -18.224449   -7.892019 H    921 MOH     0.0372 ****
5831 HC3     8.057154  -19.549623   -9.092686 H    921 MOH     0.0372 ****
5832 O1      6.662853  -18.066457   -9.506343 O    921 MOH    -0.6497 ****
5833 HO1     5.968301  -18.425307   -8.948436 H    921 MOH     0.4215 ****
5834 HC1     9.379864  -10.058666  -10.595995 H    922 MOH     0.0372 ****
5835 C1      9.917377   -9.716146  -11.480586 C    922 MOH     0.1166 ****
5836 HC2     9.589442  -10.290143  -12.347498 H    922 MOH     0.0372 ****
5837 HC3    10.976814   -9.900674  -11.302395 H    922 MOH     0.0372 ****
5838 O1      9.656992   -8.335450  -11.749286 O    922 MOH    -0.6497 ****
5839 HO1     9.916222   -8.130510  -12.650140 H    922 MOH     0.4215 ****
5840 HC1     0.041223  -16.863757    7.369467 H    923 MOH     0.0372 ****
5841 C1     -0.978955  -17.156471    7.617661 C    923 MOH     0.1166 ****
5842 HC2    -1.140036  -17.098908    8.693171 H    923 MOH     0.0372 ****
5843 HC3    -1.187379  -18.178725    7.300878 H    923 MOH     0.0372 ****
5844 O1     -1.865188  -16.264040    7.016621 O    923 MOH    -0.6497 ****
5845 HO1    -1.413700  -15.887635    6.257188 H    923 MOH     0.4215 ****
5846 HC1    12.748702  -11.890885   -1.953736 H    924 MOH     0.0372 ****
5847 C1     12.797200  -12.978458   -2.004648 C    924 MOH     0.1166 ****
5848 HC2    12.419035  -13.333226   -2.962777 H    924 MOH     0.0372 ****
5849 HC3    12.190405  -13.425082   -1.216931 H    924 MOH     0.0372 ****
5850 O1     14.133766  -13.412834   -1.931108 O    924 MOH    -0.6497 ****
5851 HO1    14.101434  -14.372218   -1.909895 H    924 MOH     0.4215 ****
5852 HC1     3.838456  -12.915588   -7.527152 H    925 MOH     0.0372 ****
5853 C1      3.884066  -13.370377   -8.517101 C    925 MOH     0.1166 ****
5854 HC2     4.801476  -13.949273   -8.625995 H    925 MOH     0.0372 ****
5855 HC3     3.873674  -12.592664   -9.280069 H    925 MOH     0.0372 ****
5856 O1      2.780750  -14.206877   -8.734183 O    925 MOH    -0.6497 ****
5857 HO1     3.039980  -15.094409   -8.476796 H    925 MOH     0.4215 ****
5858 HC1    11.945608  -17.472455   -9.031875 H    926 MOH     0.0372 ****
5859 C1     12.144217  -16.511847   -8.557406 C    926 MOH     0.1166 ****
5860 HC2    13.208850  -16.294659   -8.640845 H    926 MOH     0.0372 ****
5861 HC3    11.915009  -16.546956   -7.492503 H    926 MOH     0.0372 ****
5862 O1     11.350937  -15.516130   -9.208651 O    926 MOH    -0.6497 ****
5863 HO1    11.398280  -14.740050   -8.645087 H    926 MOH     0.4215 ****
5864 HC1    -2.479488  -18.759254   -0.586191 H    927 MOH     0.0372 ****
5865 C1     -1.564966  -18.453068   -1.093894 C    927 MOH     0.1166 ****
5866 HC2    -0.969718  -17.798646   -0.456791 H    927 MOH     0.0372 ****
5867 HC3    -1.840362  -17.906831   -1.996162 H    927 MOH     0.0372 ****
5868 O1     -0.862908  -19.592489   -1.491995 O    927 MOH    -0.6497 ****
5869 HO1     0.071822  -19.393672   -1.402193 H    927 MOH     0.4215 ****
5870 HC1    10.786866  -22.939716   -4.019902 H    928 MOH     0.0372 ****
5871 C1     10.834209  -22.216300   -3.205315 C    928 MOH     0.1166 ****
5872 HC2    10.040930  -21.488802   -3.376435 H    928 MOH     0.0372 ****
5873 HC3    11.794920  -21.702724   -3.251984 H    928 MOH     0.0372 ****
5874 O1     10.648879  -22.858067   -1.911309 O    928 MOH    -0.6497 ****
5875 HO1    10.457199  -22.182416   -1.255821 H    928 MOH     0.4215 ****
5876 HC1    -5.533671  -19.096875   -5.441894 H    929 MOH     0.0372 ****
5877 C1     -5.490947  -18.855192   -4.379819 C    929 MOH     0.1166 ****
5878 HC2    -4.454026  -18.917246   -4.048893 H    929 MOH     0.0372 ****
5879 HC3    -6.088505  -19.556971   -3.797870 H    929 MOH     0.0372 ****
5880 O1     -5.924537  -17.561453   -4.110412 O    929 MOH    -0.6497 ****
5881 HO1    -6.694145  -17.369985   -4.651348 H    929 MOH     0.4215 ****
5882 HC1    -8.136944  -15.159320    2.273348 H    930 MOH     0.0372 ****
5883 C1     -8.571689  -16.044811    2.736503 C    930 MOH     0.1166 ****
5884 HC2    -8.983917  -16.719645    1.986263 H    930 MOH     0.0372 ****
5885 HC3    -9.393835  -15.758629    3.393405 H    930 MOH     0.0372 ****
5886 O1     -7.666403  -16.747406    3.531998 O    930 MOH    -0.6497 ****
5887 HO1    -8.192947  -17.465107    3.892623 H    930 MOH     0.4215 ****
5888 HC1    17.544751  -14.225248    0.299106 H    931 MOH     0.0372 ****
5889 C1     17.627312  -13.285461    0.844993 C    931 MOH     0.1166 ****
5890 HC2    16.800546  -12.629814    0.572050 H    931 MOH     0.0372 ****
5891 HC3    18.584559  -12.823324    0.600334 H    931 MOH     0.0372 ****
5892 O1     17.586320  -13.643495    2.186374 O    931 MOH    -0.6497 ****
5893 HO1    17.810332  -12.900483    2.750646 H    931 MOH     0.4215 ****
5894 HC1     5.526628  -20.255076    8.992277 H    932 MOH     0.0372 ****
5895 C1      5.826272  -21.302232    8.977428 C    932 MOH     0.1166 ****
5896 HC2     6.460203  -21.490843    8.110515 H    932 MOH     0.0372 ****
5897 HC3     4.958515  -21.956246    8.898232 H    932 MOH     0.0372 ****
5898 O1      6.531217  -21.613318   10.171024 O    932 MOH    -0.6497 ****
5899 HO1     6.965384  -22.461658   10.052230 H    932 MOH     0.4215 ****
5900 HC1    -2.224300  -16.987456   -5.055106 H    933 MOH     0.0372 ****
5901 C1     -2.764699  -16.117887   -5.428459 C    933 MOH     0.1166 ****
5902 HC2    -3.208104  -16.447344   -6.368204 H    933 MOH     0.0372 ****
5903 HC3    -2.041857  -15.314863   -5.574830 H    933 MOH     0.0372 ****
5904 O1     -3.756010  -15.779450   -4.434974 O    933 MOH    -0.6497 ****
5905 HO1    -4.391673  -16.493476   -4.352242 H    933 MOH     0.4215 ****
5906 HC1    -3.780836  -23.759479   -9.364215 H    934 MOH     0.0372 ****
5907 C1     -3.368030  -22.751922   -9.400985 C    934 MOH     0.1166 ****
5908 HC2    -3.453478  -22.281212   -8.421642 H    934 MOH     0.0372 ****
5909 HC3    -3.944803  -22.164045  -10.115162 H    934 MOH     0.0372 ****
5910 O1     -2.028578  -22.807444   -9.832320 O    934 MOH    -0.6497 ****
5911 HO1    -1.995091  -23.467990  -10.528113 H    934 MOH     0.4215 ****
5912 HC1    12.332433  -25.602720   -3.415325 H    935 MOH     0.0372 ****
5913 C1     11.652314  -26.171410   -2.781051 C    935 MOH     0.1166 ****
5914 HC2    12.006807  -26.134259   -1.750796 H    935 MOH     0.0372 ****
5915 HC3    11.597466  -27.207952   -3.112684 H    935 MOH     0.0372 ****
5916 O1     10.419671  -25.548423   -2.863075 O    935 MOH    -0.6497 ****
5917 HO1    10.521862  -24.655584   -2.527199 H    935 MOH     0.4215 ****
5918 HC1     2.392770   -5.347073    2.776101 H    936 MOH     0.0372 ****
5919 C1      1.938396   -5.049052    1.831407 C    936 MOH     0.1166 ****
5920 HC2     0.857596   -5.183773    1.879490 H    936 MOH     0.0372 ****
5921 HC3     2.361016   -5.673671    1.043690 H    936 MOH     0.0372 ****
5922 O1      2.220143   -3.691626    1.571898 O    936 MOH    -0.6497 ****
5923 HO1     1.950520   -3.497300    0.671044 H    936 MOH     0.4215 ****
5924 HC1     3.433733   -2.433405    5.899392 H    937 MOH     0.0372 ****
5925 C1      3.091942   -3.102932    5.110261 C    937 MOH     0.1166 ****
5926 HC2     2.593688   -3.979033    5.526040 H    937 MOH     0.0372 ****
5927 HC3     3.964318   -3.420957    4.539626 H    937 MOH     0.0372 ****
5928 O1      2.310787   -2.372984    4.188194 O    937 MOH    -0.6497 ****
5929 HO1     2.337922   -2.860024    3.361586 H    937 MOH     0.4215 ****
5930 HC1     6.200395  -19.139333    1.568363 H    938 MOH     0.0372 ****
5931 C1      6.060099  -19.293651    0.499218 C    938 MOH     0.1166 ****
5932 HC2     5.863800  -18.339166    0.009900 H    938 MOH     0.0372 ****
5933 HC3     5.225828  -19.972568    0.323148 H    938 MOH     0.0372 ****
5934 O1      7.235585  -19.848052   -0.052326 O    938 MOH    -0.6497 ****
5935 HO1     7.882217  -19.948889    0.649831 H    938 MOH     0.4215 ****
5936 HC1     3.656590  -19.345498   -5.800397 H    939 MOH     0.0372 ****
5937 C1      3.495510  -20.358362   -5.431994 C    939 MOH     0.1166 ****
5938 HC2     2.744377  -20.313455   -4.644277 H    939 MOH     0.0372 ****
5939 HC3     4.420425  -20.758854   -5.016922 H    939 MOH     0.0372 ****
5940 O1      3.044022  -21.205069   -6.488412 O    939 MOH    -0.6497 ****
5941 HO1     3.448744  -22.063207   -6.338505 H    939 MOH     0.4215 ****
5942 HC1    12.662100  -25.228356    1.813729 H    940 MOH     0.0372 ****
5943 C1     12.495823  -25.141399    2.887824 C    940 MOH     0.1166 ****
5944 HC2    12.567992  -24.085261    3.147333 H    940 MOH     0.0372 ****
5945 HC3    13.282751  -25.695392    3.400477 H    940 MOH     0.0372 ****
5946 O1     11.170227  -25.660283    3.121877 O    940 MOH    -0.6497 ****
5947 HO1    10.859035  -25.311639    3.960505 H    940 MOH     0.4215 ****
5948 HC1     7.457864   -6.301557   -6.013236 H    941 MOH     0.0372 ****
5949 C1      6.877050   -5.920253   -5.173193 C    941 MOH     0.1166 ****
5950 HC2     7.174385   -4.913105   -4.881158 H    941 MOH     0.0372 ****
5951 HC3     7.084896   -6.575492   -4.326786 H    941 MOH     0.0372 ****
5952 O1      5.497760   -5.963936   -5.458157 O    941 MOH    -0.6497 ****
5953 HO1     5.092460   -6.638770   -4.908735 H    941 MOH     0.4215 ****
5954 HC1    -3.964433  -16.658408    5.012680 H    942 MOH     0.0372 ****
5955 C1     -4.355877  -17.427548    4.348000 C    942 MOH     0.1166 ****
5956 HC2    -3.856469  -17.393663    3.379970 H    942 MOH     0.0372 ****
5957 HC3    -5.427439  -17.265065    4.223549 H    942 MOH     0.0372 ****
5958 O1     -4.215003  -18.694342    4.932777 O    942 MOH    -0.6497 ****
5959 HO1    -4.661295  -18.694751    5.782012 H    942 MOH     0.4215 ****
5960 HC1    12.255645  -19.090343    0.632154 H    943 MOH     0.0372 ****
5961 C1     12.238902  -20.097492    0.214254 C    943 MOH     0.1166 ****
5962 HC2    12.740619  -20.755996    0.922068 H    943 MOH     0.0372 ****
5963 HC3    12.790271  -20.126069   -0.726198 H    943 MOH     0.0372 ****
5964 O1     10.895985  -20.533093    0.065054 O    943 MOH    -0.6497 ****
5965 HO1    10.404083  -20.272222    0.847821 H    943 MOH     0.4215 ****
5966 HC1     6.390344  -15.299350   -0.236174 H    944 MOH     0.0372 ****
5967 C1      5.326865  -15.098491   -0.367695 C    944 MOH     0.1166 ****
5968 HC2     4.744895  -16.019500   -0.340825 H    944 MOH     0.0372 ****
5969 HC3     5.161742  -14.627781   -1.337139 H    944 MOH     0.0372 ****
5970 O1      4.876531  -14.208102    0.611648 O    944 MOH    -0.6497 ****
5971 HO1     4.986805  -13.313630    0.281429 H    944 MOH     0.4215 ****
5972 HC1    10.103283  -12.371801   -3.032781 H    945 MOH     0.0372 ****
5973 C1      9.699138  -12.026015   -3.983839 C    945 MOH     0.1166 ****
5974 HC2     8.766140  -12.549389   -4.195971 H    945 MOH     0.0372 ****
5975 HC3    10.420249  -12.170943   -4.787820 H    945 MOH     0.0372 ****
5976 O1      9.452610  -10.660016   -3.829690 O    945 MOH    -0.6497 ****
5977 HO1    10.277066  -10.204411   -3.641600 H    945 MOH     0.4215 ****
5978 HC1     5.870728  -23.627615    2.170818 H    946 MOH     0.0372 ****
5979 C1      5.684822  -23.041778    1.270671 C    946 MOH     0.1166 ****
5980 HC2     5.702720  -23.665582    0.376888 H    946 MOH     0.0372 ****
5981 HC3     6.432490  -22.256309    1.161777 H    946 MOH     0.0372 ****
5982 O1      4.442364  -22.453493    1.400072 O    946 MOH    -0.6497 ****
5983 HO1     4.143874  -22.342857    0.494268 H    946 MOH     0.4215 ****
5984 HC1     7.055451  -20.052584    3.589981 H    947 MOH     0.0372 ****
5985 C1      7.809471  -20.806211    3.362293 C    947 MOH     0.1166 ****
5986 HC2     7.323342  -21.695784    2.962778 H    947 MOH     0.0372 ****
5987 HC3     8.298486  -21.095659    4.292138 H    947 MOH     0.0372 ****
5988 O1      8.743623  -20.264057    2.417598 O    947 MOH    -0.6497 ****
5989 HO1     8.960130  -19.366319    2.677106 H    947 MOH     0.4215 ****
5990 HC1     2.992060  -26.682128    0.855599 H    948 MOH     0.0372 ****
5991 C1      2.585028  -25.681512    0.710643 C    948 MOH     0.1166 ****
5992 HC2     1.539447  -25.727236    0.405172 H    948 MOH     0.0372 ****
5993 HC3     3.141594  -25.223866   -0.106066 H    948 MOH     0.0372 ****
5994 O1      2.739758  -24.857667    1.867469 O    948 MOH    -0.6497 ****
5995 HO1     3.022660  -23.977484    1.607254 H    948 MOH     0.4215 ****
5996 HC1     2.397967  -22.276721    3.078036 H    949 MOH     0.0372 ****
5997 C1      2.486301  -21.290802    3.534120 C    949 MOH     0.1166 ****
5998 HC2     1.885280  -21.258958    4.442045 H    949 MOH     0.0372 ****
5999 HC3     2.134118  -20.555546    2.810750 H    949 MOH     0.0372 ****
6000 O1      3.826331  -21.087086    3.841711 O    949 MOH    -0.6497 ****
6001 HO1     4.311305  -21.553713    3.157939 H    949 MOH     0.4215 ****
6002 HC1    12.342825  -10.484469   -4.699431 H    950 MOH     0.0372 ****
6003 C1     12.763136   -9.601020   -4.218599 C    950 MOH     0.1166 ****
6004 HC2    13.016593   -8.859233   -4.975910 H    950 MOH     0.0372 ****
6005 HC3    13.649946   -9.883936   -3.652206 H    950 MOH     0.0372 ****
6006 O1     11.757969   -9.104590   -3.395527 O    950 MOH    -0.6497 ****
6007 HO1    12.114194   -8.908223   -2.526492 H    950 MOH     0.4215 ****
6008 HC1     4.361535  -27.114055    3.891916 H    951 MOH     0.0372 ****
6009 C1      5.437716  -27.105890    3.722210 C    951 MOH     0.1166 ****
6010 HC2     5.858027  -26.245711    4.241934 H    951 MOH     0.0372 ****
6011 HC3     5.641520  -27.045469    2.653065 H    951 MOH     0.0372 ****
6012 O1      6.031232  -28.250618    4.222842 O    951 MOH    -0.6497 ****
6013 HO1     5.569352  -28.511897    5.021873 H    951 MOH     0.4215 ****
6014 HC1     0.176900  -15.460608    0.761554 H    952 MOH     0.0372 ****
6015 C1      1.208625  -15.744340    0.555786 C    952 MOH     0.1166 ****
6016 HC2     1.479402  -16.570227    1.212688 H    952 MOH     0.0372 ****
6017 HC3     1.856989  -14.893551    0.766504 H    952 MOH     0.0372 ****
6018 O1      1.346612  -16.063590   -0.806102 O    952 MOH    -0.6497 ****
6019 HO1     1.049854  -15.270772   -1.258650 H    952 MOH     0.4215 ****
6020 HC1     5.670965  -16.188106   -4.924999 H    953 MOH     0.0372 ****
6021 C1      5.685399  -15.480612   -5.754435 C    953 MOH     0.1166 ****
6022 HC2     4.694666  -15.049502   -5.895856 H    953 MOH     0.0372 ****
6023 HC3     6.024304  -15.973776   -6.665188 H    953 MOH     0.0372 ****
6024 O1      6.562394  -14.428964   -5.447550 O    953 MOH    -0.6497 ****
6025 HO1     6.758693  -14.422024   -4.507806 H    953 MOH     0.4215 ****
6026 HC1    11.802425  -20.022782    8.404671 H    954 MOH     0.0372 ****
6027 C1     11.877481  -18.980933    8.094959 C    954 MOH     0.1166 ****
6028 HC2    12.916134  -18.756396    7.851714 H    954 MOH     0.0372 ****
6029 HC3    11.515482  -18.379583    8.930052 H    954 MOH     0.0372 ****
6030 O1     10.989516  -18.823349    7.018742 O    954 MOH    -0.6497 ****
6031 HO1    11.356711  -19.343865    6.301029 H    954 MOH     0.4215 ****
6032 HC1     1.527322  -23.935434    8.953386 H    955 MOH     0.0372 ****
6033 C1      2.519787  -23.914613    8.502959 C    955 MOH     0.1166 ****
6034 HC2     3.042867  -23.003403    8.792873 H    955 MOH     0.0372 ****
6035 HC3     2.459743  -23.970135    7.416843 H    955 MOH     0.0372 ****
6036 O1      3.254754  -24.979325    8.951265 O    955 MOH    -0.6497 ****
6037 HO1     2.807885  -25.775409    8.655694 H    955 MOH     0.4215 ****
6038 HC1    -3.126121  -19.644336   -7.141071 H    956 MOH     0.0372 ****
6039 C1     -2.338038  -19.610043   -7.893433 C    956 MOH     0.1166 ****
6040 HC2    -2.758349  -19.218533   -8.820450 H    956 MOH     0.0372 ****
6041 HC3    -1.940243  -20.607802   -8.080109 H    956 MOH     0.0372 ****
6042 O1     -1.331716  -18.709856   -7.543415 O    956 MOH    -0.6497 ****
6043 HO1    -0.504373  -19.174851   -7.686958 H    956 MOH     0.4215 ****
6044 HC1     0.077596  -20.264874   -9.859190 H    957 MOH     0.0372 ****
6045 C1      0.507722  -20.834788   -9.034703 C    957 MOH     0.1166 ****
6046 HC2     1.283103  -21.478596   -9.449775 H    957 MOH     0.0372 ****
6047 HC3    -0.237637  -21.483495   -8.574377 H    957 MOH     0.0372 ****
6048 O1      1.076989  -19.940316   -8.094958 O    957 MOH    -0.6497 ****
6049 HO1     1.491527  -20.479612   -7.418257 H    957 MOH     0.4215 ****
6050 HC1    10.424867  -11.549589   -7.573821 H    958 MOH     0.0372 ****
6051 C1     11.168495  -12.070514   -8.176276 C    958 MOH     0.1166 ****
6052 HC2    12.084172  -11.481003   -8.224359 H    958 MOH     0.0372 ****
6053 HC3    10.832477  -12.191764   -9.206530 H    958 MOH     0.0372 ****
6054 O1     11.506822  -13.299341   -7.592205 O    958 MOH    -0.6497 ****
6055 HO1    10.803032  -13.570826   -6.998943 H    958 MOH     0.4215 ****
6056 HC1    11.140782  -17.226690   -2.913987 H    959 MOH     0.0372 ****
6057 C1     11.101522  -18.296300   -3.119048 C    959 MOH     0.1166 ****
6058 HC2    10.323254  -18.724553   -2.487601 H    959 MOH     0.0372 ****
6059 HC3    12.070316  -18.732718   -2.875096 H    959 MOH     0.0372 ****
6060 O1     10.812847  -18.588198   -4.487299 O    959 MOH    -0.6497 ****
6061 HO1    11.242395  -19.402653   -4.759536 H    959 MOH     0.4215 ****
6062 HC1    15.302323  -18.546557   -5.160465 H    960 MOH     0.0372 ****
6063 C1     14.779821  -17.617383   -4.932777 C    960 MOH     0.1166 ****
6064 HC2    13.747518  -17.830489   -4.654177 H    960 MOH     0.0372 ****
6065 HC3    14.820235  -16.971126   -5.808882 H    960 MOH     0.0372 ****
6066 O1     15.467445  -17.054001   -3.866460 O    960 MOH    -0.6497 ****
6067 HO1    15.929902  -17.769252   -3.423811 H    960 MOH     0.4215 ****
6068 HC1     8.702632  -23.332451    4.479522 H    961 MOH     0.0372 ****
6069 C1      8.953779  -23.852968    5.403710 C    961 MOH     0.1166 ****
6070 HC2     8.286939  -24.706615    5.524626 H    961 MOH     0.0372 ****
6071 HC3     8.830803  -23.183032    6.254360 H    961 MOH     0.0372 ****
6072 O1     10.293809  -24.283670    5.306837 O    961 MOH    -0.6497 ****
6073 HO1    10.483757  -24.839296    6.065562 H    961 MOH     0.4215 ****
6074 HC1    10.175452  -16.402028   -5.541596 H    962 MOH     0.0372 ****
6075 C1      9.238413  -16.146057   -6.034449 C    962 MOH     0.1166 ****
6076 HC2     8.400100  -16.477962   -5.421388 H    962 MOH     0.0372 ****
6077 HC3     9.219937  -16.644936   -7.003185 H    962 MOH     0.0372 ****
6078 O1      9.207813  -14.762503   -6.251531 O    962 MOH    -0.6497 ****
6079 HO1     8.291558  -14.521228   -6.403559 H    962 MOH     0.4215 ****
6080 HC1     0.228862  -17.104215    3.700290 H    963 MOH     0.0372 ****
6081 C1     -0.780924  -16.704948    3.792214 C    963 MOH     0.1166 ****
6082 HC2    -1.393493  -17.446327    4.305573 H    963 MOH     0.0372 ****
6083 HC3    -1.182182  -16.513072    2.796607 H    963 MOH     0.0372 ****
6084 O1     -0.712797  -15.516129    4.554475 O    963 MOH    -0.6497 ****
6085 HO1    -0.378511  -14.822924    3.980304 H    963 MOH     0.4215 ****
6086 HC1     6.845873  -21.111989   -7.249259 H    964 MOH     0.0372 ****
6087 C1      7.151291  -22.092193   -7.616247 C    964 MOH     0.1166 ****
6088 HC2     8.100455  -22.012585   -8.145870 H    964 MOH     0.0372 ****
6089 HC3     6.384570  -22.484520   -8.283049 H    964 MOH     0.0372 ****
6090 O1      7.304867  -23.012793   -6.542152 O    964 MOH    -0.6497 ****
6091 HO1     8.154149  -23.446761   -6.650339 H    964 MOH     0.4215 ****
6092 HC1    12.686926  -23.760295   -0.576292 H    965 MOH     0.0372 ****
6093 C1     13.558147  -23.256925   -0.995606 C    965 MOH     0.1166 ****
6094 HC2    13.260235  -22.307748   -1.438962 H    965 MOH     0.0372 ****
6095 HC3    13.996934  -23.868481   -1.784737 H    965 MOH     0.0372 ****
6096 O1     14.526941  -22.981766   -0.009899 O    965 MOH    -0.6497 ****
6097 HO1    14.957067  -23.819900    0.173241 H    965 MOH     0.4215 ****
6098 HC1     4.131750  -17.436530  -12.324164 H    966 MOH     0.0372 ****
6099 C1      5.055510  -17.248327  -12.872172 C    966 MOH     0.1166 ****
6100 HC2     5.646139  -18.163211  -12.834695 H    966 MOH     0.0372 ****
6101 HC3     5.578012  -16.424890  -12.384975 H    966 MOH     0.0372 ****
6102 O1      4.782423  -16.896009  -14.226281 O    966 MOH    -0.6497 ****
6103 HO1     5.564156  -16.473880  -14.589734 H    966 MOH     0.4215 ****
6104 HC1     8.239597   -8.180724   -2.303047 H    967 MOH     0.0372 ****
6105 C1      7.224615   -8.564069   -2.406991 C    967 MOH     0.1166 ****
6106 HC2     6.503504   -7.746756   -2.385778 H    967 MOH     0.0372 ****
6107 HC3     6.989633   -9.258908   -1.600890 H    967 MOH     0.0372 ****
6108 O1      7.097020   -9.276054   -3.589274 O    967 MOH    -0.6497 ****
6109 HO1     7.817554   -9.909247   -3.621094 H    967 MOH     0.4215 ****
6110 HC1     1.718425  -22.174659   -1.413506 H    968 MOH     0.0372 ****
6111 C1      2.575213  -22.432672   -2.037174 C    968 MOH     0.1166 ****
6112 HC2     2.761120  -21.639446   -2.760545 H    968 MOH     0.0372 ****
6113 HC3     2.329262  -23.336534   -2.594375 H    968 MOH     0.0372 ****
6114 O1      3.738574  -22.623324   -1.236022 O    968 MOH    -0.6497 ****
6115 HO1     4.434858  -22.971152   -1.797465 H    968 MOH     0.4215 ****
6116 HC1     7.773098  -22.514730   -2.230215 H    969 MOH     0.0372 ****
6117 C1      7.274844  -23.290402   -2.810042 C    969 MOH     0.1166 ****
6118 HC2     8.001728  -24.035863   -3.132483 H    969 MOH     0.0372 ****
6119 HC3     6.812387  -22.816425   -3.676248 H    969 MOH     0.0372 ****
6120 O1      6.299700  -23.921145   -2.013133 O    969 MOH    -0.6497 ****
6121 HO1     6.771395  -24.290202   -1.263600 H    969 MOH     0.4215 ****
6122 HC1    11.113646  -16.462857    4.956819 H    970 MOH     0.0372 ****
6123 C1     10.491263  -15.568385    4.947626 C    970 MOH     0.1166 ****
6124 HC2    10.935245  -14.781283    5.557152 H    970 MOH     0.0372 ****
6125 HC3     9.519582  -15.846402    5.357041 H    970 MOH     0.0372 ****
6126 O1     10.311707  -15.115638    3.626044 O    970 MOH    -0.6497 ****
6127 HO1    11.169072  -14.840070    3.292996 H    970 MOH     0.4215 ****
6128 HC1     7.097598  -10.815967   -6.523767 H    971 MOH     0.0372 ****
6129 C1      7.690537  -11.154405   -7.373002 C    971 MOH     0.1166 ****
6130 HC2     8.057731  -12.150122   -7.124808 H    971 MOH     0.0372 ****
6131 HC3     8.537509  -10.484469   -7.525030 H    971 MOH     0.0372 ****
6132 O1      6.886288  -11.205436   -8.543264 O    971 MOH    -0.6497 ****
6133 HO1     7.293320  -11.855775   -9.120970 H    971 MOH     0.4215 ****
6134 HC1     6.742527  -16.283228    2.797315 H    972 MOH     0.0372 ****
6135 C1      7.196325  -15.403861    3.254106 C    972 MOH     0.1166 ****
6136 HC2     8.033483  -15.087061    2.631852 H    972 MOH     0.0372 ****
6137 HC3     7.500011  -15.652893    4.270925 H    972 MOH     0.0372 ****
6138 O1      6.246006  -14.406102    3.218750 O    972 MOH    -0.6497 ****
6139 HO1     5.918071  -14.350581    2.317896 H    972 MOH     0.4215 ****
6140 HC1    -1.424670   -4.810635    0.468105 H    973 MOH     0.0372 ****
6141 C1     -2.332264   -4.874321    1.067731 C    973 MOH     0.1166 ****
6142 HC2    -2.943101   -5.721028    0.755190 H    973 MOH     0.0372 ****
6143 HC3    -2.881324   -3.942290    0.935502 H    973 MOH     0.0372 ****
6144 O1     -1.960451   -5.057625    2.392142 O    973 MOH    -0.6497 ****
6145 HO1    -1.433330   -5.860241    2.390728 H    973 MOH     0.4215 ****
6146 HC1    10.364823  -20.223640    4.640035 H    974 MOH     0.0372 ****
6147 C1     11.187547  -20.914397    4.454773 C    974 MOH     0.1166 ****
6148 HC2    11.462943  -20.793147    3.407548 H    974 MOH     0.0372 ****
6149 HC3    10.879242  -21.954205    4.561546 H    974 MOH     0.0372 ****
6150 O1     12.277584  -20.603720    5.339364 O    974 MOH    -0.6497 ****
6151 HO1    12.888421  -21.344282    5.352091 H    974 MOH     0.4215 ****
6152 HC1     6.112061  -18.882137   -4.555182 H    975 MOH     0.0372 ****
6153 C1      7.039285  -19.058908   -4.011417 C    975 MOH     0.1166 ****
6154 HC2     6.973468  -19.983591   -3.437953 H    975 MOH     0.0372 ****
6155 HC3     7.262720  -18.222407   -3.348858 H    975 MOH     0.0372 ****
6156 O1      8.042720  -19.160970   -4.941969 O    975 MOH    -0.6497 ****
6157 HO1     8.852743  -18.820083   -4.555182 H    975 MOH     0.4215 ****
6158 HC1     4.015125  -18.738025   -9.828077 H    976 MOH     0.0372 ****
6159 C1      4.295140  -19.646377   -9.294211 C    976 MOH     0.1166 ****
6160 HC2     5.103430  -20.141991   -9.831613 H    976 MOH     0.0372 ****
6161 HC3     3.464333  -20.352239   -9.270877 H    976 MOH     0.0372 ****
6162 O1      4.732771  -19.385099   -7.974750 O    976 MOH    -0.6497 ****
6163 HO1     4.385206  -20.089735   -7.423207 H    976 MOH     0.4215 ****
6164 HC1    15.198977  -19.265890    3.575132 H    977 MOH     0.0372 ****
6165 C1     14.367592  -18.582482    3.405427 C    977 MOH     0.1166 ****
6166 HC2    13.445564  -19.042578    3.762515 H    977 MOH     0.0372 ****
6167 HC3    14.297156  -18.394280    2.334160 H    977 MOH     0.0372 ****
6168 O1     14.695527  -17.361820    4.057379 O    977 MOH    -0.6497 ****
6169 HO1    15.308673  -17.559004    4.769436 H    977 MOH     0.4215 ****
6170 HC1     7.705548  -17.036446   12.058292 H    978 MOH     0.0372 ****
6171 C1      6.814119  -16.409785   12.026472 C    978 MOH     0.1166 ****
6172 HC2     5.925577  -17.040529   11.986167 H    978 MOH     0.0372 ****
6173 HC3     6.823356  -15.791697   11.128447 H    978 MOH     0.0372 ****
6174 O1      6.824511  -15.562261   13.147944 O    978 MOH    -0.6497 ****
6175 HO1     7.580263  -14.982141   13.031271 H    978 MOH     0.4215 ****
6176 HC1    14.958799  -16.439587   -0.402344 H    979 MOH     0.0372 ****
6177 C1     13.949013  -16.760470   -0.658316 C    979 MOH     0.1166 ****
6178 HC2    13.251574  -16.329768    0.060811 H    979 MOH     0.0372 ****
6179 HC3    13.867607  -17.846819   -0.623668 H    979 MOH     0.0372 ****
6180 O1     13.593943  -16.301191   -1.930401 O    979 MOH    -0.6497 ****
6181 HO1    14.192655  -16.708623   -2.559726 H    979 MOH     0.4215 ****
6182 HC1     9.362543  -15.774551   10.644786 H    980 MOH     0.0372 ****
6183 C1      9.587132  -14.708614   10.694990 C    980 MOH     0.1166 ****
6184 HC2     9.228020  -14.160745    9.823835 H    980 MOH     0.0372 ****
6185 HC3    10.673128  -14.662074   10.622865 H    980 MOH     0.0372 ****
6186 O1      9.226288  -14.110531   11.961418 O    980 MOH    -0.6497 ****
6187 HO1     9.154119  -13.161762   11.835553 H    980 MOH     0.4215 ****
6188 HC1     8.449175  -29.225515    2.012426 H    981 MOH     0.0372 ****
6189 C1      9.030566  -28.468215    2.539221 C    981 MOH     0.1166 ****
6190 HC2    10.084231  -28.712347    2.402042 H    981 MOH     0.0372 ****
6191 HC3     8.800781  -28.457600    3.604124 H    981 MOH     0.0372 ****
6192 O1      8.902395  -27.207952    1.986970 O    981 MOH    -0.6497 ****
6193 HO1     9.700870  -26.731526    2.228094 H    981 MOH     0.4215 ****
6194 HC1     3.604629  -17.868456    7.094402 H    982 MOH     0.0372 ****
6195 C1      3.949884  -18.711489    6.496897 C    982 MOH     0.1166 ****
6196 HC2     4.690047  -19.243436    7.095817 H    982 MOH     0.0372 ****
6197 HC3     4.391557  -18.325694    5.578366 H    982 MOH     0.0372 ****
6198 O1      2.897375  -19.629231    6.163143 O    982 MOH    -0.6497 ****
6199 HO1     3.176235  -20.142399    5.401589 H    982 MOH     0.4215 ****
6200 HC1    10.762040   -9.331168    0.871863 H    983 MOH     0.0372 ****
6201 C1     10.269560   -8.894750    0.002829 C    983 MOH     0.1166 ****
6202 HC2     9.327325   -8.407302    0.253144 H    983 MOH     0.0372 ****
6203 HC3    10.017258   -9.729210   -0.651952 H    983 MOH     0.0372 ****
6204 O1     11.107295   -7.969660   -0.697207 O    983 MOH    -0.6497 ****
6205 HO1    10.566318   -7.269922   -1.069145 H    983 MOH     0.4215 ****
6206 HC1     8.669723  -29.548031   -2.650236 H    984 MOH     0.0372 ****
6207 C1      8.636814  -28.462908   -2.749231 C    984 MOH     0.1166 ****
6208 HC2     9.081951  -27.993830   -1.871711 H    984 MOH     0.0372 ****
6209 HC3     7.599315  -28.137125   -2.824184 H    984 MOH     0.0372 ****
6210 O1      9.322706  -28.085686   -3.914543 O    984 MOH    -0.6497 ****
6211 HO1     9.424319  -27.132426   -3.874238 H    984 MOH     0.4215 ****
6212 HC1    17.103078  -20.731093   -1.467246 H    985 MOH     0.0372 ****
6213 C1     16.197215  -20.406536   -1.978484 C    985 MOH     0.1166 ****
6214 HC2    15.311560  -20.799271   -1.479267 H    985 MOH     0.0372 ****
6215 HC3    16.204721  -20.754772   -3.011567 H    985 MOH     0.0372 ****
6216 O1     16.104262  -19.014409   -1.964342 O    985 MOH    -0.6497 ****
6217 HO1    16.374462  -18.729044   -1.088237 H    985 MOH     0.4215 ****
6218 HC1     9.637362  -16.167285    0.517602 H    986 MOH     0.0372 ****
6219 C1     10.300737  -16.989089    0.787010 C    986 MOH     0.1166 ****
6220 HC2    11.316874  -16.602886    0.864792 H    986 MOH     0.0372 ****
6221 HC3    10.286881  -17.771701    0.028284 H    986 MOH     0.0372 ****
6222 O1      9.922573  -17.416117    2.073944 O    986 MOH    -0.6497 ****
6223 HO1     9.976266  -16.646977    2.645287 H    986 MOH     0.4215 ****
6224 HC1    13.417274   -9.968035    4.620943 H    987 MOH     0.0372 ****
6225 C1     13.077792  -10.713905    3.901815 C    987 MOH     0.1166 ****
6226 HC2    12.571456  -11.551222    4.383355 H    987 MOH     0.0372 ****
6227 HC3    13.964602  -11.110722    3.406841 H    987 MOH     0.0372 ****
6228 O1     12.236593  -10.093367    2.947221 O    987 MOH    -0.6497 ****
6229 HO1    12.766023   -9.408327    2.531442 H    987 MOH     0.4215 ****
6230 HC1     4.123667  -17.204236   -4.360020 H    988 MOH     0.0372 ****
6231 C1      3.493200  -17.517771   -3.528463 C    988 MOH     0.1166 ****
6232 HC2     2.516901  -17.830489   -3.898987 H    988 MOH     0.0372 ****
6233 HC3     3.322882  -16.690660   -2.838326 H    988 MOH     0.0372 ****
6234 O1      4.095376  -18.571868   -2.832670 O    988 MOH    -0.6497 ****
6235 HO1     3.444703  -18.926227   -2.223144 H    988 MOH     0.4215 ****
6236 HC1     6.785829  -12.471822   -1.216224 H    989 MOH     0.0372 ****
6237 C1      7.442276  -12.196254   -0.391030 C    989 MOH     0.1166 ****
6238 HC2     6.895525  -12.232180    0.552251 H    989 MOH     0.0372 ****
6239 HC3     7.788686  -11.173592   -0.541644 H    989 MOH     0.0372 ****
6240 O1      8.561181  -13.068273   -0.325976 O    989 MOH    -0.6497 ****
6241 HO1     9.166244  -12.741674    0.344361 H    989 MOH     0.4215 ****
6242 HC1     3.242053   -2.362778   -1.168140 H    990 MOH     0.0372 ****
6243 C1      2.334458   -1.983107   -1.637659 C    990 MOH     0.1166 ****
6244 HC2     2.464939   -2.003111   -2.720240 H    990 MOH     0.0372 ****
6245 HC3     2.191275   -0.952280   -1.315926 H    990 MOH     0.0372 ****
6246 O1      1.194191   -2.776333   -1.263600 O    990 MOH    -0.6497 ****
6247 HO1     0.421119   -2.271330   -1.525936 H    990 MOH     0.4215 ****
6248 HC1    -3.876099  -22.539633   -1.163191 H    991 MOH     0.0372 ****
6249 C1     -3.232353  -21.755388   -1.559877 C    991 MOH     0.1166 ****
6250 HC2    -3.198290  -20.953997   -0.822365 H    991 MOH     0.0372 ****
6251 HC3    -3.631302  -21.315296   -2.474874 H    991 MOH     0.0372 ****
6252 O1     -1.920613  -22.219975   -1.790394 O    991 MOH    -0.6497 ****
6253 HO1    -1.478363  -21.432872   -2.115663 H    991 MOH     0.4215 ****
6254 HC1     0.829306  -21.465124    7.774639 H    992 MOH     0.0372 ****
6255 C1      0.436130  -21.030339    8.693171 C    992 MOH     0.1166 ****
6256 HC2     0.251956  -19.965628    8.551750 H    992 MOH     0.0372 ****
6257 HC3     1.135301  -21.174451    9.516950 H    992 MOH     0.0372 ****
6258 O1     -0.728385  -21.691293    9.021976 O    992 MOH    -0.6497 ****
6259 HO1    -1.152738  -21.241812    9.756659 H    992 MOH     0.4215 ****
6260 HC1     2.616205  -15.503882   -6.320827 H    993 MOH     0.0372 ****
6261 C1      2.482837  -16.526544   -6.673674 C    993 MOH     0.1166 ****
6262 HC2     1.484021  -16.604111   -7.102180 H    993 MOH     0.0372 ****
6263 HC3     2.556161  -17.243428   -5.856258 H    993 MOH     0.0372 ****
6264 O1      3.403133  -16.803745   -7.685543 O    993 MOH    -0.6497 ****
6265 HO1     3.519181  -17.751697   -7.777467 H    993 MOH     0.4215 ****
6266 HC1     4.803208  -24.778467   -7.363103 H    994 MOH     0.0372 ****
6267 C1      4.066509  -24.432680   -6.638318 C    994 MOH     0.1166 ****
6268 HC2     3.795732  -25.240604   -5.957374 H    994 MOH     0.0372 ****
6269 HC3     3.157760  -24.133026   -7.158749 H    994 MOH     0.0372 ****
6270 O1      4.506450  -23.351231   -5.844237 O    994 MOH    -0.6497 ****
6271 HO1     5.453882  -23.419816   -5.708473 H    994 MOH     0.4215 ****
6272 HC1     3.640424  -27.029140   -1.600890 H    995 MOH     0.0372 ****
6273 C1      4.675613  -26.724995   -1.757160 C    995 MOH     0.1166 ****
6274 HC2     5.264511  -27.627632   -1.924744 H    995 MOH     0.0372 ****
6275 HC3     5.048582  -26.168144   -0.898732 H    995 MOH     0.0372 ****
6276 O1      4.673304  -25.993414   -2.933786 O    995 MOH    -0.6497 ****
6277 HO1     5.310699  -25.284286   -2.824184 H    995 MOH     0.4215 ****
6278 HC1    16.702974  -21.837038    2.969849 H    996 MOH     0.0372 ****
6279 C1     17.086912  -21.240179    2.142534 C    996 MOH     0.1166 ****
6280 HC2    17.774536  -21.857450    1.564121 H    996 MOH     0.0372 ****
6281 HC3    17.588052  -20.378367    2.584476 H    996 MOH     0.0372 ****
6282 O1     16.021701  -20.800495    1.355524 O    996 MOH    -0.6497 ****
6283 HO1    15.492271  -21.556571    1.093894 H    996 MOH     0.4215 ****
6284 HC1    16.595010  -16.380391    1.705542 H    997 MOH     0.0372 ****
6285 C1     17.235291  -17.255675    1.814436 C    997 MOH     0.1166 ****
6286 HC2    17.085180  -17.656575    2.817114 H    997 MOH     0.0372 ****
6287 HC3    18.273944  -16.942957    1.708370 H    997 MOH     0.0372 ****
6288 O1     16.855972  -18.197504    0.811052 O    997 MOH    -0.6497 ****
6289 HO1    16.784958  -19.070747    1.203496 H    997 MOH     0.4215 ****
6290 HC1    14.730746  -14.166869    6.126373 H    998 MOH     0.0372 ****
6291 C1     15.589266  -13.805161    5.560688 C    998 MOH     0.1166 ****
6292 HC2    15.241123  -13.285869    4.668319 H    998 MOH     0.0372 ****
6293 HC3    16.218577  -14.645744    5.267239 H    998 MOH     0.0372 ****
6294 O1     16.338666  -12.915588    6.356183 O    998 MOH    -0.6497 ****
6295 HO1    16.506098  -13.334042    7.204004 H    998 MOH     0.4215 ****
6296 HC1    15.529799  -12.845777   -3.805648 H    999 MOH     0.0372 ****
6297 C1     15.082929  -12.431814   -4.709331 C    999 MOH     0.1166 ****
6298 HC2    14.055246  -12.112972   -4.537504 H    999 MOH     0.0372 ****
6299 HC3    15.113529  -13.204219   -5.478663 H    999 MOH     0.0372 ****
6300 O1     15.893529  -11.367510   -5.097533 O    999 MOH    -0.6497 ****
6301 HO1    16.075395  -10.821274   -4.329615 H    999 MOH     0.4215 ****
6302 HC1     8.755748  -15.098083   -9.211480 H    1000 MOH     0.0372 ****
6303 C1      7.831410  -14.582874   -9.473109 C    1000 MOH     0.1166 ****
6304 HC2     7.118382  -14.629822   -8.649330 H    1000 MOH     0.0372 ****
6305 HC3     7.395511  -15.029089  -10.366185 H    1000 MOH     0.0372 ****
6306 O1      8.069278  -13.233613   -9.752417 O    1000 MOH    -0.6497 ****
6307 HO1     8.573883  -13.203403  -10.568418 H    1000 MOH     0.4215 ****
6308 HC1     0.361652  -20.959304   12.992380 H    1001 MOH     0.0372 ****
6309 C1      1.255968  -21.401845   13.432201 C    1001 MOH     0.1166 ****
6310 HC2     1.321786  -21.128727   14.485083 H    1001 MOH     0.0372 ****
6311 HC3     2.146242  -21.031972   12.923084 H    1001 MOH     0.0372 ****
6312 O1      1.204583  -22.814384   13.316235 O    1001 MOH    -0.6497 ****
6313 HO1     2.109869  -23.122612   13.404623 H    1001 MOH     0.4215 ****
6314 HC1    -0.984729  -25.317763   -8.671957 H    1002 MOH     0.0372 ****
6315 C1     -0.470887  -25.008719   -7.761911 C    1002 MOH     0.1166 ****
6316 HC2     0.612222  -25.034847   -7.877876 H    1002 MOH     0.0372 ****
6317 HC3    -0.773996  -25.648036   -6.931768 H    1002 MOH     0.0372 ****
6318 O1     -0.910250  -23.751314   -7.479068 O    1002 MOH    -0.6497 ****
6319 HO1    -1.242227  -23.389198   -8.304262 H    1002 MOH     0.4215 ****
6320 HC1     4.092490  -17.216484   10.794692 H    1003 MOH     0.0372 ****
6321 C1      3.681994  -18.173009   11.117840 C    1003 MOH     0.1166 ****
6322 HC2     4.460839  -18.935617   11.139053 H    1003 MOH     0.0372 ****
6323 HC3     2.896797  -18.451843   10.415683 H    1003 MOH     0.0372 ****
6324 O1      3.086168  -18.028489   12.373662 O    1003 MOH    -0.6497 ****
6325 HO1     3.706820  -17.579416   12.952075 H    1003 MOH     0.4215 ****
6326 HC1    -7.608091  -15.895800   -2.837619 H    1004 MOH     0.0372 ****
6327 C1     -7.049216  -15.263424   -2.148190 C    1004 MOH     0.1166 ****
6328 HC2    -7.004183  -14.262807   -2.578818 H    1004 MOH     0.0372 ****
6329 HC3    -6.035966  -15.657792   -2.067580 H    1004 MOH     0.0372 ****
6330 O1     -7.714323  -15.251176   -0.859842 O    1004 MOH    -0.6497 ****
6331 HO1    -7.247247  -15.869264   -0.294156 H    1004 MOH     0.4215 ****
6332 HC1     0.866834  -22.108931   -4.938434 H    1005 MOH     0.0372 ****
6333 C1     -0.015357  -21.525544   -4.677511 C    1005 MOH     0.1166 ****
6334 HC2     0.288906  -20.526969   -4.366384 H    1005 MOH     0.0372 ****
6335 HC3    -0.550561  -22.015442   -3.864338 H    1005 MOH     0.0372 ****
6336 O1     -0.836350  -21.470431   -5.844945 O    1005 MOH    -0.6497 ****
6337 HO1    -0.926994  -22.359187   -6.197791 H    1005 MOH     0.4215 ****
6338 HC1     2.597152  -20.246094    0.127986 H    1006 MOH     0.0372 ****
6339 C1      2.285383  -19.202612    0.092631 C    1006 MOH     0.1166 ****
6340 HC2     3.091364  -18.545332    0.420729 H    1006 MOH     0.0372 ****
6341 HC3     1.442452  -19.079321    0.771454 H    1006 MOH     0.0372 ****
6342 O1      1.832163  -18.856417   -1.201374 O    1006 MOH    -0.6497 ****
6343 HO1     1.620853  -17.920712   -1.171676 H    1006 MOH     0.4215 ****
6344 HC1    -1.677549  -21.075246    0.944695 H    1007 MOH     0.0372 ****
6345 C1     -0.906209  -21.368369    1.657458 C    1007 MOH     0.1166 ****
6346 HC2    -0.008429  -21.624749    1.094601 H    1007 MOH     0.0372 ****
6347 HC3    -1.236453  -22.256717    2.196274 H    1007 MOH     0.0372 ****
6348 O1     -0.645824  -20.291001    2.566091 O    1007 MOH    -0.6497 ****
6349 HO1    -1.312086  -20.315905    3.256934 H    1007 MOH     0.4215 ****
6350 HC1    -1.806875  -20.464507    6.827823 H    1008 MOH     0.0372 ****
6351 C1     -1.323633  -20.615151    5.862622 C    1008 MOH     0.1166 ****
6352 HC2    -0.868104  -21.604744    5.842823 H    1008 MOH     0.0372 ****
6353 HC3    -0.563263  -19.846011    5.724030 H    1008 MOH     0.0372 ****
6354 O1     -2.354781  -20.565753    4.876208 O    1008 MOH    -0.6497 ****
6355 HO1    -2.867468  -19.764769    5.006316 H    1008 MOH     0.4215 ****
6356 HC1    -6.106980  -19.036863    0.494268 H    1009 MOH     0.0372 ****
6357 C1     -5.519238  -18.121162    0.555786 C    1009 MOH     0.1166 ****
6358 HC2    -5.053316  -17.910506   -0.407293 H    1009 MOH     0.0372 ****
6359 HC3    -4.730577  -18.269764    1.292591 H    1009 MOH     0.0372 ****
6360 O1     -6.300970  -16.996438    0.931260 O    1009 MOH    -0.6497 ****
6361 HO1    -6.701074  -17.160554    1.788273 H    1009 MOH     0.4215 ****
6362 HC1     7.628183  -16.429381   -1.955857 H    1010 MOH     0.0372 ****
6363 C1      8.409915  -15.756179   -2.307289 C    1010 MOH     0.1166 ****
6364 HC2     8.969367  -16.190964   -3.135311 H    1010 MOH     0.0372 ****
6365 HC3     9.095230  -15.551239   -1.485631 H    1010 MOH     0.0372 ****
6366 O1      7.836029  -14.556746   -2.752767 O    1010 MOH    -0.6497 ****
6367 HO1     8.031173  -13.913347   -2.066873 H    1010 MOH     0.4215 ****
6368 HC1    12.528039    6.311519   -1.684328 H    1011 MOH     0.0372 ****
6369 C1     11.491695    6.450323   -1.377444 C    1011 MOH     0.1166 ****
6370 HC2    10.928201    6.814480   -2.235872 H    1011 MOH     0.0372 ****
6371 HC3    11.421836    7.200275   -0.589020 H    1011 MOH     0.0372 ****
6372 O1     10.966306    5.207615   -0.960251 O    1011 MOH    -0.6497 ****
6373 HO1    10.203627    5.359892   -0.398101 H    1011 MOH     0.4215 ****
6374 HC1     7.026468   -4.229452    2.406992 H    1012 MOH     0.0372 ****
6375 C1      6.225683   -4.623412    3.032781 C    1012 MOH     0.1166 ****
6376 HC2     5.659880   -5.353768    2.453661 H    1012 MOH     0.0372 ****
6377 HC3     5.553070   -3.846515    3.394113 H    1012 MOH     0.0372 ****
6378 O1      6.722782   -5.364383    4.077178 O    1012 MOH    -0.6497 ****
6379 HO1     7.267223   -4.768340    4.596194 H    1012 MOH     0.4215 ****
6380 HC1    19.135813   -2.990419    6.913383 H    1013 MOH     0.0372 ****
6381 C1     19.197012   -2.210664    7.671402 C    1013 MOH     0.1166 ****
6382 HC2    19.557278   -2.656472    8.599126 H    1013 MOH     0.0372 ****
6383 HC3    18.203969   -1.785270    7.817066 H    1013 MOH     0.0372 ****
6384 O1     20.068233   -1.188002    7.243602 O    1013 MOH    -0.6497 ****
6385 HO1    20.955043   -1.548077    7.177134 H    1013 MOH     0.4215 ****
6386 HC1    25.394290    1.758734    1.132785 H    1014 MOH     0.0372 ****
6387 C1     25.827880    1.951835    2.113542 C    1014 MOH     0.1166 ****
6388 HC2    26.113668    3.002666    2.164454 H    1014 MOH     0.0372 ****
6389 HC3    26.715844    1.332522    2.240115 H    1014 MOH     0.0372 ****
6390 O1     24.873520    1.637076    3.121170 O    1014 MOH    -0.6497 ****
6391 HO1    25.074438    0.745461    3.413912 H    1014 MOH     0.4215 ****
6392 HC1    18.757071   -9.094955   -6.499725 H    1015 MOH     0.0372 ****
6393 C1     18.570010  -10.080875   -6.074754 C    1015 MOH     0.1166 ****
6394 HC2    18.177989   -9.986161   -5.062177 H    1015 MOH     0.0372 ****
6395 HC3    19.527256  -10.597309   -6.006165 H    1015 MOH     0.0372 ****
6396 O1     17.728810  -10.884716   -6.923989 O    1015 MOH    -0.6497 ****
6397 HO1    17.012896  -11.230911   -6.386588 H    1015 MOH     0.4215 ****
6398 HC1    21.387479   -8.623020    0.137179 H    1016 MOH     0.0372 ****
6399 C1     20.538774   -8.188236    0.665388 C    1016 MOH     0.1166 ****
6400 HC2    20.402519   -7.161083    0.327391 H    1016 MOH     0.0372 ****
6401 HC3    20.703319   -8.200483    1.743018 H    1016 MOH     0.0372 ****
6402 O1     19.373104   -8.886341    0.331633 O    1016 MOH    -0.6497 ****
6403 HO1    19.400239   -9.686915    0.861256 H    1016 MOH     0.4215 ****
6404 HC1    29.464032    0.147378   -3.482501 H    1017 MOH     0.0372 ****
6405 C1     29.269465    0.888757   -2.707512 C    1017 MOH     0.1166 ****
6406 HC2    28.205408    0.930806   -2.474873 H    1017 MOH     0.0372 ****
6407 HC3    29.570842    1.877126   -3.054701 H    1017 MOH     0.0372 ****
6408 O1     29.939191    0.558484   -1.496238 O    1017 MOH    -0.6497 ****
6409 HO1    29.721530   -0.335988   -1.224002 H    1017 MOH     0.4215 ****
6410 HC1    13.577662    4.860196    2.984698 H    1018 MOH     0.0372 ****
6411 C1     14.181570    5.411739    3.705240 C    1018 MOH     0.1166 ****
6412 HC2    14.993325    4.776505    4.058793 H    1018 MOH     0.0372 ****
6413 HC3    13.533206    5.697513    4.533969 H    1018 MOH     0.0372 ****
6414 O1     14.686174    6.535647    3.049752 O    1018 MOH    -0.6497 ****
6415 HO1    15.499083    6.797334    3.488865 H    1018 MOH     0.4215 ****
6416 HC1    20.281853   -1.547261   -9.476645 H    1019 MOH     0.0372 ****
6417 C1     19.489729   -2.079617   -8.950557 C    1019 MOH     0.1166 ****
6418 HC2    19.516864   -1.822012   -7.892019 H    1019 MOH     0.0372 ****
6419 HC3    19.655428   -3.147186   -9.092686 H    1019 MOH     0.0372 ****
6420 O1     18.261127   -1.664020   -9.506343 O    1019 MOH    -0.6497 ****
6421 HO1    17.566575   -2.022870   -8.948436 H    1019 MOH     0.4215 ****
6422 HC1    20.978138    6.343770  -10.595995 H    1020 MOH     0.0372 ****
6423 C1     21.515651    6.686290  -11.480586 C    1020 MOH     0.1166 ****
6424 HC2    21.187716    6.112293  -12.347498 H    1020 MOH     0.0372 ****
6425 HC3    22.575088    6.501762  -11.302395 H    1020 MOH     0.0372 ****
6426 O1     21.255266    8.066986  -11.749286 O    1020 MOH    -0.6497 ****
6427 HO1    21.514496    8.271927  -12.650140 H    1020 MOH     0.4215 ****
6428 HC1    11.639497   -0.461321    7.369467 H    1021 MOH     0.0372 ****
6429 C1     10.619319   -0.754035    7.617661 C    1021 MOH     0.1166 ****
6430 HC2    10.458238   -0.696472    8.693171 H    1021 MOH     0.0372 ****
6431 HC3    10.410895   -1.776288    7.300878 H    1021 MOH     0.0372 ****
6432 O1      9.733086    0.138396    7.016621 O    1021 MOH    -0.6497 ****
6433 HO1    10.184574    0.514801    6.257188 H    1021 MOH     0.4215 ****
6434 HC1    24.346976    4.511552   -1.953736 H    1022 MOH     0.0372 ****
6435 C1     24.395474    3.423978   -2.004648 C    1022 MOH     0.1166 ****
6436 HC2    24.017309    3.069211   -2.962777 H    1022 MOH     0.0372 ****
6437 HC3    23.788679    2.977355   -1.216931 H    1022 MOH     0.0372 ****
6438 O1     25.732040    2.989602   -1.931108 O    1022 MOH    -0.6497 ****
6439 HO1    25.699708    2.030219   -1.909895 H    1022 MOH     0.4215 ****
6440 HC1    15.436730    3.486849   -7.527152 H    1023 MOH     0.0372 ****
6441 C1     15.482340    3.032060   -8.517101 C    1023 MOH     0.1166 ****
6442 HC2    16.399750    2.453164   -8.625995 H    1023 MOH     0.0372 ****
6443 HC3    15.471948    3.809773   -9.280069 H    1023 MOH     0.0372 ****
6444 O1     14.379024    2.195559   -8.734183 O    1023 MOH    -0.6497 ****
6445 HO1    14.638254    1.308027   -8.476796 H    1023 MOH     0.4215 ****
6446 HC1    23.543882   -1.070019   -9.031875 H    1024 MOH     0.0372 ****
6447 C1     23.742491   -0.109411   -8.557406 C    1024 MOH     0.1166 ****
6448 HC2    24.807125    0.107777   -8.640845 H    1024 MOH     0.0372 ****
6449 HC3    23.513283   -0.144520   -7.492503 H    1024 MOH     0.0372 ****
6450 O1     22.949211    0.886307   -9.208651 O    1024 MOH    -0.6497 ****
6451 HO1    22.996554    1.662387   -8.645087 H    1024 MOH     0.4215 ****
6452 HC1     6.238385    2.325382    3.573718 H    1025 MOH     0.0372 ****
6453 C1      7.278770    2.352735    3.247741 C    1025 MOH     0.1166 ****
6454 HC2     7.863049    1.713010    3.910301 H    1025 MOH     0.0372 ****
6455 HC3     7.619984    3.386420    3.301482 H    1025 MOH     0.0372 ****
6456 O1      7.345743    1.870594    1.924745 O    1025 MOH    -0.6497 ****
6457 HO1     6.751072    1.117784    1.880904 H    1025 MOH     0.4215 ****
6458 HC1     9.118786   -2.356817   -0.586191 H    1026 MOH     0.0372 ****
6459 C1     10.033308   -2.050631   -1.093894 C    1026 MOH     0.1166 ****
6460 HC2    10.628557   -1.396209   -0.456791 H    1026 MOH     0.0372 ****
6461 HC3     9.757912   -1.504395   -1.996162 H    1026 MOH     0.0372 ****
6462 O1     10.735366   -3.190052   -1.491995 O    1026 MOH    -0.6497 ****
6463 HO1    11.670096   -2.991235   -1.402193 H    1026 MOH     0.4215 ****
6464 HC1    22.385140   -6.537280   -4.019902 H    1027 MOH     0.0372 ****
6465 C1     22.432483   -5.813864   -3.205315 C    1027 MOH     0.1166 ****
6466 HC2    21.639204   -5.086365   -3.376435 H    1027 MOH     0.0372 ****
6467 HC3    23.393194   -5.300288   -3.251984 H    1027 MOH     0.0372 ****
6468 O1     22.247153   -6.455630   -1.911309 O    1027 MOH    -0.6497 ****
6469 HO1    22.055473   -5.779979   -1.255821 H    1027 MOH     0.4215 ****
6470 HC1     6.064603   -2.694439   -5.441894 H    1028 MOH     0.0372 ****
6471 C1      6.107327   -2.452756   -4.379819 C    1028 MOH     0.1166 ****
6472 HC2     7.144248   -2.514809   -4.048893 H    1028 MOH     0.0372 ****
6473 HC3     5.509769   -3.154535   -3.797870 H    1028 MOH     0.0372 ****
6474 O1      5.673737   -1.159017   -4.110412 O    1028 MOH    -0.6497 ****
6475 HO1     4.904129   -0.967548   -4.651348 H    1028 MOH     0.4215 ****
6476 HC1     3.461330    1.243116    2.273348 H    1029 MOH     0.0372 ****
6477 C1      3.026586    0.357626    2.736503 C    1029 MOH     0.1166 ****
6478 HC2     2.614357   -0.317209    1.986263 H    1029 MOH     0.0372 ****
6479 HC3     2.204439    0.643808    3.393405 H    1029 MOH     0.0372 ****
6480 O1      3.931871   -0.344970    3.531998 O    1029 MOH    -0.6497 ****
6481 HO1     3.405327   -1.062670    3.892623 H    1029 MOH     0.4215 ****
6482 HC1    29.143025    2.177188    0.299106 H    1030 MOH     0.0372 ****
6483 C1     29.225586    3.116976    0.844993 C    1030 MOH     0.1166 ****
6484 HC2    28.398821    3.772622    0.572050 H    1030 MOH     0.0372 ****
6485 HC3    30.182833    3.579113    0.600334 H    1030 MOH     0.0372 ****
6486 O1     29.184594    2.758942    2.186374 O    1030 MOH    -0.6497 ****
6487 HO1    29.408606    3.501954    2.750646 H    1030 MOH     0.4215 ****
6488 HC1    17.050424    6.801417    0.042427 H    1031 MOH     0.0372 ****
6489 C1     16.384739    7.660371    0.127279 C    1031 MOH     0.1166 ****
6490 HC2    15.342622    7.340304    0.120208 H    1031 MOH     0.0372 ****
6491 HC3    16.519839    8.284991   -0.755190 H    1031 MOH     0.0372 ****
6492 O1     16.610483    8.457272    1.330775 O    1031 MOH    -0.6497 ****
6493 HO1    16.537737    7.890215    2.100814 H    1031 MOH     0.4215 ****
6494 HC1    17.124902   -3.852639    8.992277 H    1032 MOH     0.0372 ****
6495 C1     17.424547   -4.899796    8.977428 C    1032 MOH     0.1166 ****
6496 HC2    18.058477   -5.088407    8.110515 H    1032 MOH     0.0372 ****
6497 HC3    16.556789   -5.553810    8.898232 H    1032 MOH     0.0372 ****
6498 O1     18.129491   -5.210881   10.171024 O    1032 MOH    -0.6497 ****
6499 HO1    18.563659   -6.059221   10.052230 H    1032 MOH     0.4215 ****
6500 HC1     9.373974   -0.585020   -5.055106 H    1033 MOH     0.0372 ****
6501 C1      8.833575    0.284549   -5.428459 C    1033 MOH     0.1166 ****
6502 HC2     8.390170   -0.044907   -6.368204 H    1033 MOH     0.0372 ****
6503 HC3     9.556417    1.087573   -5.574830 H    1033 MOH     0.0372 ****
6504 O1      7.842264    0.622987   -4.434974 O    1033 MOH    -0.6497 ****
6505 HO1     7.206602   -0.091039   -4.352242 H    1033 MOH     0.4215 ****
6506 HC1     7.817438   -7.357043   -9.364215 H    1034 MOH     0.0372 ****
6507 C1      8.230244   -6.349486   -9.400985 C    1034 MOH     0.1166 ****
6508 HC2     8.144796   -5.878775   -8.421642 H    1034 MOH     0.0372 ****
6509 HC3     7.653471   -5.761608  -10.115162 H    1034 MOH     0.0372 ****
6510 O1      9.569696   -6.405007   -9.832320 O    1034 MOH    -0.6497 ****
6511 HO1     9.603183   -7.065553  -10.528113 H    1034 MOH     0.4215 ****
6512 HC1    23.930707   -9.200283   -3.415325 H    1035 MOH     0.0372 ****
6513 C1     23.250588   -9.768973   -2.781051 C    1035 MOH     0.1166 ****
6514 HC2    23.605081   -9.731823   -1.750796 H    1035 MOH     0.0372 ****
6515 HC3    23.195740  -10.805516   -3.112684 H    1035 MOH     0.0372 ****
6516 O1     22.017945   -9.145986   -2.863075 O    1035 MOH    -0.6497 ****
6517 HO1    22.120136   -8.253147   -2.527199 H    1035 MOH     0.4215 ****
6518 HC1    13.991045   11.055364    2.776101 H    1036 MOH     0.0372 ****
6519 C1     13.536670   11.353385    1.831407 C    1036 MOH     0.1166 ****
6520 HC2    12.455870   11.218663    1.879490 H    1036 MOH     0.0372 ****
6521 HC3    13.959290   10.728765    1.043690 H    1036 MOH     0.0372 ****
6522 O1     13.818417   12.710811    1.571898 O    1036 MOH    -0.6497 ****
6523 HO1    13.548794   12.905137    0.671044 H    1036 MOH     0.4215 ****
6524 HC1    15.032007   13.969032    5.899392 H    1037 MOH     0.0372 ****
6525 C1     14.690216   13.299505    5.110261 C    1037 MOH     0.1166 ****
6526 HC2    14.191962   12.423404    5.526040 H    1037 MOH     0.0372 ****
6527 HC3    15.562592   12.981479    4.539626 H    1037 MOH     0.0372 ****
6528 O1     13.909061   14.029453    4.188194 O    1037 MOH    -0.6497 ****
6529 HO1    13.936196   13.542412    3.361586 H    1037 MOH     0.4215 ****
6530 HC1    17.798670   -2.736897    1.568363 H    1038 MOH     0.0372 ****
6531 C1     17.658373   -2.891214    0.499218 C    1038 MOH     0.1166 ****
6532 HC2    17.462074   -1.936730    0.009900 H    1038 MOH     0.0372 ****
6533 HC3    16.824102   -3.570131    0.323148 H    1038 MOH     0.0372 ****
6534 O1     18.833859   -3.445616   -0.052326 O    1038 MOH    -0.6497 ****
6535 HO1    19.480491   -3.546453    0.649831 H    1038 MOH     0.4215 ****
6536 HC1    20.561868    5.299471    2.858833 H    1039 MOH     0.0372 ****
6537 C1     21.044533    4.333556    2.711755 C    1039 MOH     0.1166 ****
6538 HC2    20.271461    3.579521    2.563969 H    1039 MOH     0.0372 ****
6539 HC3    21.609181    4.091056    3.611195 H    1039 MOH     0.0372 ****
6540 O1     21.952705    4.361316    1.588869 O    1039 MOH    -0.6497 ****
6541 HO1    22.664000    4.965524    1.817972 H    1039 MOH     0.4215 ****
6542 HC1    15.254864   -2.943062   -5.800397 H    1040 MOH     0.0372 ****
6543 C1     15.093784   -3.955926   -5.431994 C    1040 MOH     0.1166 ****
6544 HC2    14.342651   -3.911019   -4.644277 H    1040 MOH     0.0372 ****
6545 HC3    16.018699   -4.356418   -5.016922 H    1040 MOH     0.0372 ****
6546 O1     14.642296   -4.802633   -6.488412 O    1040 MOH    -0.6497 ****
6547 HO1    15.047018   -5.660771   -6.338505 H    1040 MOH     0.4215 ****
6548 HC1    24.260374   -8.825920    1.813729 H    1041 MOH     0.0372 ****
6549 C1     24.094097   -8.738963    2.887824 C    1041 MOH     0.1166 ****
6550 HC2    24.166266   -7.682825    3.147333 H    1041 MOH     0.0372 ****
6551 HC3    24.881025   -9.292956    3.400477 H    1041 MOH     0.0372 ****
6552 O1     22.768501   -9.257846    3.121877 O    1041 MOH    -0.6497 ****
6553 HO1    22.457309   -8.909202    3.960505 H    1041 MOH     0.4215 ****
6554 HC1    23.126458    8.571173   10.994804 H    1042 MOH     0.0372 ****
6555 C1     22.415162    7.745287   10.984197 C    1042 MOH     0.1166 ****
6556 HC2    22.777161    7.014114   10.260827 H    1042 MOH     0.0372 ****
6557 HC3    21.426161    8.117609   10.714082 H    1042 MOH     0.0372 ****
6558 O1     22.351654    7.171698   12.269010 O    1042 MOH    -0.6497 ****
6559 HO1    22.075680    7.855514   12.883486 H    1042 MOH     0.4215 ****
6560 HC1    19.056139   10.100879   -6.013236 H    1043 MOH     0.0372 ****
6561 C1     18.475324   10.482183   -5.173193 C    1043 MOH     0.1166 ****
6562 HC2    18.772660   11.489332   -4.881158 H    1043 MOH     0.0372 ****
6563 HC3    18.683170    9.826945   -4.326786 H    1043 MOH     0.0372 ****
6564 O1     17.096034   10.438501   -5.458157 O    1043 MOH    -0.6497 ****
6565 HO1    16.690734    9.763666   -4.908735 H    1043 MOH     0.4215 ****
6566 HC1     7.633841   -0.255972    5.012680 H    1044 MOH     0.0372 ****
6567 C1      7.242397   -1.025111    4.348000 C    1044 MOH     0.1166 ****
6568 HC2     7.741805   -0.991227    3.379970 H    1044 MOH     0.0372 ****
6569 HC3     6.170835   -0.862629    4.223549 H    1044 MOH     0.0372 ****
6570 O1      7.383271   -2.291906    4.932777 O    1044 MOH    -0.6497 ****
6571 HO1     6.936979   -2.292314    5.782012 H    1044 MOH     0.4215 ****
6572 HC1    23.853919   -2.687907    0.632154 H    1045 MOH     0.0372 ****
6573 C1     23.837176   -3.695055    0.214254 C    1045 MOH     0.1166 ****
6574 HC2    24.338893   -4.353560    0.922068 H    1045 MOH     0.0372 ****
6575 HC3    24.388546   -3.723633   -0.726198 H    1045 MOH     0.0372 ****
6576 O1     22.494259   -4.130656    0.065054 O    1045 MOH    -0.6497 ****
6577 HO1    22.002357   -3.869786    0.847821 H    1045 MOH     0.4215 ****
6578 HC1    17.988618    1.103087   -0.236174 H    1046 MOH     0.0372 ****
6579 C1     16.925139    1.303945   -0.367695 C    1046 MOH     0.1166 ****
6580 HC2    16.343170    0.382937   -0.340825 H    1046 MOH     0.0372 ****
6581 HC3    16.760016    1.774655   -1.337139 H    1046 MOH     0.0372 ****
6582 O1     16.474805    2.194335    0.611648 O    1046 MOH    -0.6497 ****
6583 HO1    16.585079    3.088807    0.281429 H    1046 MOH     0.4215 ****
6584 HC1    21.701557    4.030635   -3.032781 H    1047 MOH     0.0372 ****
6585 C1     21.297412    4.376422   -3.983839 C    1047 MOH     0.1166 ****
6586 HC2    20.364414    3.853047   -4.195971 H    1047 MOH     0.0372 ****
6587 HC3    22.018523    4.231493   -4.787820 H    1047 MOH     0.0372 ****
6588 O1     21.050884    5.742420   -3.829690 O    1047 MOH    -0.6497 ****
6589 HO1    21.875340    6.198026   -3.641600 H    1047 MOH     0.4215 ****
6590 HC1    17.469003   -7.225178    2.170818 H    1048 MOH     0.0372 ****
6591 C1     17.283096   -6.639342    1.270671 C    1048 MOH     0.1166 ****
6592 HC2    17.300994   -7.263145    0.376888 H    1048 MOH     0.0372 ****
6593 HC3    18.030764   -5.853872    1.161777 H    1048 MOH     0.0372 ****
6594 O1     16.040638   -6.051056    1.400072 O    1048 MOH    -0.6497 ****
6595 HO1    15.742148   -5.940421    0.494268 H    1048 MOH     0.4215 ****
6596 HC1    18.653725   -3.650148    3.589981 H    1049 MOH     0.0372 ****
6597 C1     19.407745   -4.403774    3.362293 C    1049 MOH     0.1166 ****
6598 HC2    18.921616   -5.293347    2.962778 H    1049 MOH     0.0372 ****
6599 HC3    19.896760   -4.693222    4.292138 H    1049 MOH     0.0372 ****
6600 O1     20.341897   -3.861621    2.417598 O    1049 MOH    -0.6497 ****
6601 HO1    20.558404   -2.963883    2.677106 H    1049 MOH     0.4215 ****
6602 HC1    16.899158    4.702612   -5.496341 H    1050 MOH     0.0372 ****
6603 C1     16.661867    4.416022   -4.471036 C    1050 MOH     0.1166 ****
6604 HC2    17.423969    3.753435   -4.061621 H    1050 MOH     0.0372 ****
6605 HC3    15.708662    3.887340   -4.490128 H    1050 MOH     0.0372 ****
6606 O1     16.560253    5.542379   -3.633115 O    1050 MOH    -0.6497 ****
6607 HO1    17.333903    6.098821   -3.752616 H    1050 MOH     0.4215 ****
6608 HC1    14.590334  -10.279692    0.855599 H    1051 MOH     0.0372 ****
6609 C1     14.183302   -9.279075    0.710643 C    1051 MOH     0.1166 ****
6610 HC2    13.137721   -9.324799    0.405172 H    1051 MOH     0.0372 ****
6611 HC3    14.739868   -8.821429   -0.106066 H    1051 MOH     0.0372 ****
6612 O1     14.338032   -8.455230    1.867469 O    1051 MOH    -0.6497 ****
6613 HO1    14.620934   -7.575047    1.607254 H    1051 MOH     0.4215 ****
6614 HC1    13.996241   -5.874285    3.078036 H    1052 MOH     0.0372 ****
6615 C1     14.084575   -4.888365    3.534120 C    1052 MOH     0.1166 ****
6616 HC2    13.483554   -4.856522    4.442045 H    1052 MOH     0.0372 ****
6617 HC3    13.732392   -4.153110    2.810750 H    1052 MOH     0.0372 ****
6618 O1     15.424605   -4.684649    3.841711 O    1052 MOH    -0.6497 ****
6619 HO1    15.909579   -5.151277    3.157939 H    1052 MOH     0.4215 ****
6620 HC1    23.941099    5.917967   -4.699431 H    1053 MOH     0.0372 ****
6621 C1     24.361410    6.801416   -4.218599 C    1053 MOH     0.1166 ****
6622 HC2    24.614867    7.543204   -4.975910 H    1053 MOH     0.0372 ****
6623 HC3    25.248220    6.518500   -3.652206 H    1053 MOH     0.0372 ****
6624 O1     23.356243    7.297846   -3.395527 O    1053 MOH    -0.6497 ****
6625 HO1    23.712468    7.494214   -2.526492 H    1053 MOH     0.4215 ****
6626 HC1    18.292304    8.225795    7.876463 H    1054 MOH     0.0372 ****
6627 C1     18.249580    9.099854    7.226631 C    1054 MOH     0.1166 ****
6628 HC2    19.050365    9.800000    7.464926 H    1054 MOH     0.0372 ****
6629 HC3    17.310231    9.615880    7.421793 H    1054 MOH     0.0372 ****
6630 O1     18.250157    8.745495    5.835045 O    1054 MOH    -0.6497 ****
6631 HO1    18.359277    9.537905    5.304008 H    1054 MOH     0.4215 ****
6632 HC1    15.959809  -10.711619    3.891916 H    1055 MOH     0.0372 ****
6633 C1     17.035990  -10.703454    3.722210 C    1055 MOH     0.1166 ****
6634 HC2    17.456301   -9.843275    4.241934 H    1055 MOH     0.0372 ****
6635 HC3    17.239794  -10.643033    2.653065 H    1055 MOH     0.0372 ****
6636 O1     17.629506  -11.848182    4.222842 O    1055 MOH    -0.6497 ****
6637 HO1    17.167626  -12.109461    5.021873 H    1055 MOH     0.4215 ****
6638 HC1    12.605981    3.956334   -3.509371 H    1056 MOH     0.0372 ****
6639 C1     12.023435    3.083499   -3.213800 C    1056 MOH     0.1166 ****
6640 HC2    12.359453    2.168615   -3.700997 H    1056 MOH     0.0372 ****
6641 HC3    11.003257    3.263537   -3.551090 H    1056 MOH     0.0372 ****
6642 O1     12.016507    2.936530   -1.810900 O    1056 MOH    -0.6497 ****
6643 HO1    11.830022    3.798342   -1.429770 H    1056 MOH     0.4215 ****
6644 HC1    11.775174    0.941829    0.761554 H    1057 MOH     0.0372 ****
6645 C1     12.806899    0.658096    0.555786 C    1057 MOH     0.1166 ****
6646 HC2    13.077676   -0.167790    1.212688 H    1057 MOH     0.0372 ****
6647 HC3    13.455263    1.508886    0.766504 H    1057 MOH     0.0372 ****
6648 O1     12.944886    0.338846   -0.806102 O    1057 MOH    -0.6497 ****
6649 HO1    12.648128    1.131664   -1.258650 H    1057 MOH     0.4215 ****
6650 HC1    17.269239    0.214330   -4.924999 H    1058 MOH     0.0372 ****
6651 C1     17.283673    0.921825   -5.754435 C    1058 MOH     0.1166 ****
6652 HC2    16.292940    1.352935   -5.895856 H    1058 MOH     0.0372 ****
6653 HC3    17.622578    0.428661   -6.665188 H    1058 MOH     0.0372 ****
6654 O1     18.160668    1.973472   -5.447550 O    1058 MOH    -0.6497 ****
6655 HO1    18.356967    1.980412   -4.507806 H    1058 MOH     0.4215 ****
6656 HC1    23.400699   -3.620346    8.404671 H    1059 MOH     0.0372 ****
6657 C1     23.475755   -2.578496    8.094959 C    1059 MOH     0.1166 ****
6658 HC2    24.514408   -2.353960    7.851714 H    1059 MOH     0.0372 ****
6659 HC3    23.113756   -1.977146    8.930052 H    1059 MOH     0.0372 ****
6660 O1     22.587790   -2.420912    7.018742 O    1059 MOH    -0.6497 ****
6661 HO1    22.954985   -2.941429    6.301029 H    1059 MOH     0.4215 ****
6662 HC1     8.472153   -3.241900   -7.141071 H    1060 MOH     0.0372 ****
6663 C1      9.260237   -3.207607   -7.893433 C    1060 MOH     0.1166 ****
6664 HC2     8.839926   -2.816097   -8.820450 H    1060 MOH     0.0372 ****
6665 HC3     9.658031   -4.205366   -8.080109 H    1060 MOH     0.0372 ****
6666 O1     10.266558   -2.307419   -7.543415 O    1060 MOH    -0.6497 ****
6667 HO1    11.093901   -2.772414   -7.686958 H    1060 MOH     0.4215 ****
6668 HC1    11.675870   -3.862437   -9.859190 H    1061 MOH     0.0372 ****
6669 C1     12.105996   -4.432352   -9.034703 C    1061 MOH     0.1166 ****
6670 HC2    12.881377   -5.076159   -9.449775 H    1061 MOH     0.0372 ****
6671 HC3    11.360637   -5.081058   -8.574377 H    1061 MOH     0.0372 ****
6672 O1     12.675263   -3.537880   -8.094958 O    1061 MOH    -0.6497 ****
6673 HO1    13.089801   -4.077176   -7.418257 H    1061 MOH     0.4215 ****
6674 HC1    22.023142    4.852847   -7.573821 H    1062 MOH     0.0372 ****
6675 C1     22.766769    4.331923   -8.176276 C    1062 MOH     0.1166 ****
6676 HC2    23.682446    4.921433   -8.224359 H    1062 MOH     0.0372 ****
6677 HC3    22.430751    4.210673   -9.206530 H    1062 MOH     0.0372 ****
6678 O1     23.105096    3.103095   -7.592205 O    1062 MOH    -0.6497 ****
6679 HO1    22.401306    2.831610   -6.998943 H    1062 MOH     0.4215 ****
6680 HC1    22.739056   -0.824253   -2.913987 H    1063 MOH     0.0372 ****
6681 C1     22.699796   -1.893864   -3.119048 C    1063 MOH     0.1166 ****
6682 HC2    21.921528   -2.322116   -2.487601 H    1063 MOH     0.0372 ****
6683 HC3    23.668590   -2.330281   -2.875096 H    1063 MOH     0.0372 ****
6684 O1     22.411121   -2.185761   -4.487299 O    1063 MOH    -0.6497 ****
6685 HO1    22.840670   -3.000217   -4.759536 H    1063 MOH     0.4215 ****
6686 HC1    26.900597   -2.144120   -5.160465 H    1064 MOH     0.0372 ****
6687 C1     26.378095   -1.214947   -4.932777 C    1064 MOH     0.1166 ****
6688 HC2    25.345792   -1.428053   -4.654177 H    1064 MOH     0.0372 ****
6689 HC3    26.418509   -0.568690   -5.808882 H    1064 MOH     0.0372 ****
6690 O1     27.065719   -0.651564   -3.866460 O    1064 MOH    -0.6497 ****
6691 HO1    27.528176   -1.366815   -3.423811 H    1064 MOH     0.4215 ****
6692 HC1    20.300906   -6.930015    4.479522 H    1065 MOH     0.0372 ****
6693 C1     20.552053   -7.450531    5.403710 C    1065 MOH     0.1166 ****
6694 HC2    19.885213   -8.304178    5.524626 H    1065 MOH     0.0372 ****
6695 HC3    20.429077   -6.780596    6.254360 H    1065 MOH     0.0372 ****
6696 O1     21.892083   -7.881233    5.306837 O    1065 MOH    -0.6497 ****
6697 HO1    22.082031   -8.436859    6.065562 H    1065 MOH     0.4215 ****
6698 HC1    21.773726    0.000408   -5.541596 H    1066 MOH     0.0372 ****
6699 C1     20.836687    0.256380   -6.034449 C    1066 MOH     0.1166 ****
6700 HC2    19.998374   -0.075526   -5.421388 H    1066 MOH     0.0372 ****
6701 HC3    20.818212   -0.242500   -7.003185 H    1066 MOH     0.0372 ****
6702 O1     20.806087    1.639933   -6.251531 O    1066 MOH    -0.6497 ****
6703 HO1    19.889832    1.881208   -6.403559 H    1066 MOH     0.4215 ****
6704 HC1    11.827136   -0.701779    3.700290 H    1067 MOH     0.0372 ****
6705 C1     10.817350   -0.302512    3.792214 C    1067 MOH     0.1166 ****
6706 HC2    10.204781   -1.043891    4.305573 H    1067 MOH     0.0372 ****
6707 HC3    10.416092   -0.110635    2.796607 H    1067 MOH     0.0372 ****
6708 O1     10.885477    0.886307    4.554475 O    1067 MOH    -0.6497 ****
6709 HO1    11.219763    1.579513    3.980304 H    1067 MOH     0.4215 ****
6710 HC1    18.444147   -4.709552   -7.249259 H    1068 MOH     0.0372 ****
6711 C1     18.749566   -5.689756   -7.616247 C    1068 MOH     0.1166 ****
6712 HC2    19.698729   -5.610148   -8.145870 H    1068 MOH     0.0372 ****
6713 HC3    17.982844   -6.082083   -8.283049 H    1068 MOH     0.0372 ****
6714 O1     18.903141   -6.610356   -6.542152 O    1068 MOH    -0.6497 ****
6715 HO1    19.752423   -7.044324   -6.650339 H    1068 MOH     0.4215 ****
6716 HC1    24.285200   -7.357859   -0.576292 H    1069 MOH     0.0372 ****
6717 C1     25.156421   -6.854489   -0.995606 C    1069 MOH     0.1166 ****
6718 HC2    24.858509   -5.905312   -1.438962 H    1069 MOH     0.0372 ****
6719 HC3    25.595208   -7.466045   -1.784737 H    1069 MOH     0.0372 ****
6720 O1     26.125215   -6.579329   -0.009899 O    1069 MOH    -0.6497 ****
6721 HO1    26.555341   -7.417463    0.173241 H    1069 MOH     0.4215 ****
6722 HC1    14.257203    1.971839    8.384872 H    1070 MOH     0.0372 ****
6723 C1     14.865153    2.842633    8.136678 C    1070 MOH     0.1166 ****
6724 HC2    15.914776    2.573189    8.022127 H    1070 MOH     0.0372 ****
6725 HC3    14.808572    3.564824    8.951972 H    1070 MOH     0.0372 ****
6726 O1     14.470245    3.404791    6.926818 O    1070 MOH    -0.6497 ****
6727 HO1    14.751992    2.806299    6.231025 H    1070 MOH     0.4215 ****
6728 HC1    15.730024   -1.034093  -12.324164 H    1071 MOH     0.0372 ****
6729 C1     16.653784   -0.845891  -12.872172 C    1071 MOH     0.1166 ****
6730 HC2    17.244413   -1.760775  -12.834695 H    1071 MOH     0.0372 ****
6731 HC3    17.176286   -0.022454  -12.384975 H    1071 MOH     0.0372 ****
6732 O1     16.380697   -0.493572  -14.226281 O    1071 MOH    -0.6497 ****
6733 HO1    17.162430   -0.071444  -14.589734 H    1071 MOH     0.4215 ****
6734 HC1    19.837871    8.221712   -2.303047 H    1072 MOH     0.0372 ****
6735 C1     18.822889    7.838367   -2.406991 C    1072 MOH     0.1166 ****
6736 HC2    18.101778    8.655680   -2.385778 H    1072 MOH     0.0372 ****
6737 HC3    18.587907    7.143529   -1.600890 H    1072 MOH     0.0372 ****
6738 O1     18.695295    7.126382   -3.589274 O    1072 MOH    -0.6497 ****
6739 HO1    19.415828    6.493189   -3.621094 H    1072 MOH     0.4215 ****
6740 HC1    13.316699   -5.772223   -1.413506 H    1073 MOH     0.0372 ****
6741 C1     14.173487   -6.030236   -2.037174 C    1073 MOH     0.1166 ****
6742 HC2    14.359394   -5.237009   -2.760545 H    1073 MOH     0.0372 ****
6743 HC3    13.927536   -6.934097   -2.594375 H    1073 MOH     0.0372 ****
6744 O1     15.336848   -6.220887   -1.236022 O    1073 MOH    -0.6497 ****
6745 HO1    16.033132   -6.568715   -1.797465 H    1073 MOH     0.4215 ****
6746 HC1    19.371372   -6.112293   -2.230215 H    1074 MOH     0.0372 ****
6747 C1     18.873118   -6.887965   -2.810042 C    1074 MOH     0.1166 ****
6748 HC2    19.600002   -7.633427   -3.132483 H    1074 MOH     0.0372 ****
6749 HC3    18.410661   -6.413989   -3.676248 H    1074 MOH     0.0372 ****
6750 O1     17.897974   -7.518709   -2.013133 O    1074 MOH    -0.6497 ****
6751 HO1    18.369669   -7.887765   -1.263600 H    1074 MOH     0.4215 ****
6752 HC1    22.711920   -0.060421    4.956819 H    1075 MOH     0.0372 ****
6753 C1     22.089537    0.834051    4.947626 C    1075 MOH     0.1166 ****
6754 HC2    22.533519    1.621154    5.557152 H    1075 MOH     0.0372 ****
6755 HC3    21.117856    0.556034    5.357041 H    1075 MOH     0.0372 ****
6756 O1     21.909981    1.286799    3.626044 O    1075 MOH    -0.6497 ****
6757 HO1    22.767346    1.562366    3.292996 H    1075 MOH     0.4215 ****
6758 HC1    18.695872    5.586470   -6.523767 H    1076 MOH     0.0372 ****
6759 C1     19.288811    5.248032   -7.373002 C    1076 MOH     0.1166 ****
6760 HC2    19.656005    4.252314   -7.124808 H    1076 MOH     0.0372 ****
6761 HC3    20.135784    5.917967   -7.525030 H    1076 MOH     0.0372 ****
6762 O1     18.484562    5.197001   -8.543264 O    1076 MOH    -0.6497 ****
6763 HO1    18.891594    4.546661   -9.120970 H    1076 MOH     0.4215 ****
6764 HC1    14.452347    5.907353   -0.861256 H    1077 MOH     0.0372 ****
6765 C1     14.633635    4.869177   -0.581949 C    1077 MOH     0.1166 ****
6766 HC2    13.974301    4.231902   -1.170969 H    1077 MOH     0.0372 ****
6767 HC3    14.409046    4.714451    0.473762 H    1077 MOH     0.0372 ****
6768 O1     15.963850    4.473585   -0.823072 O    1077 MOH    -0.6497 ****
6769 HO1    16.143406    4.581771   -1.759989 H    1077 MOH     0.4215 ****
6770 HC1    18.340801    0.119209    2.797315 H    1078 MOH     0.0372 ****
6771 C1     18.794599    0.998575    3.254106 C    1078 MOH     0.1166 ****
6772 HC2    19.631757    1.315376    2.631852 H    1078 MOH     0.0372 ****
6773 HC3    19.098285    0.749544    4.270925 H    1078 MOH     0.0372 ****
6774 O1     17.844280    1.996334    3.218750 O    1078 MOH    -0.6497 ****
6775 HO1    17.516345    2.051856    2.317896 H    1078 MOH     0.4215 ****
6776 HC1    10.173605   11.591802    0.468105 H    1079 MOH     0.0372 ****
6777 C1      9.266010   11.528115    1.067731 C    1079 MOH     0.1166 ****
6778 HC2     8.655173   10.681408    0.755190 H    1079 MOH     0.0372 ****
6779 HC3     8.716950   12.460146    0.935502 H    1079 MOH     0.0372 ****
6780 O1      9.637823   11.344812    2.392142 O    1079 MOH    -0.6497 ****
6781 HO1    10.164944   10.542196    2.390728 H    1079 MOH     0.4215 ****
6782 HC1    25.703749    3.438267    8.174155 H    1080 MOH     0.0372 ****
6783 C1     25.450870    4.302937    8.787923 C    1080 MOH     0.1166 ****
6784 HC2    26.258583    4.486241    9.495737 H    1080 MOH     0.0372 ****
6785 HC3    24.532883    4.070236    9.326739 H    1080 MOH     0.0372 ****
6786 O1     25.258612    5.411331    7.931617 O    1080 MOH    -0.6497 ****
6787 HO1    24.573298    5.140254    7.316434 H    1080 MOH     0.4215 ****
6788 HC1    21.963097   -3.821204    4.640035 H    1081 MOH     0.0372 ****
6789 C1     22.785821   -4.511960    4.454773 C    1081 MOH     0.1166 ****
6790 HC2    23.061217   -4.390710    3.407548 H    1081 MOH     0.0372 ****
6791 HC3    22.477516   -5.551768    4.561546 H    1081 MOH     0.0372 ****
6792 O1     23.875858   -4.201283    5.339364 O    1081 MOH    -0.6497 ****
6793 HO1    24.486695   -4.941846    5.352091 H    1081 MOH     0.4215 ****
6794 HC1    17.710335   -2.479700   -4.555182 H    1082 MOH     0.0372 ****
6795 C1     18.637560   -2.656472   -4.011417 C    1082 MOH     0.1166 ****
6796 HC2    18.571742   -3.581154   -3.437953 H    1082 MOH     0.0372 ****
6797 HC3    18.860994   -1.819971   -3.348858 H    1082 MOH     0.0372 ****
6798 O1     19.640994   -2.758534   -4.941969 O    1082 MOH    -0.6497 ****
6799 HO1    20.451017   -2.417646   -4.555182 H    1082 MOH     0.4215 ****
6800 HC1    15.613399   -2.335589   -9.828077 H    1083 MOH     0.0372 ****
6801 C1     15.893414   -3.243941   -9.294211 C    1083 MOH     0.1166 ****
6802 HC2    16.701704   -3.739554   -9.831613 H    1083 MOH     0.0372 ****
6803 HC3    15.062607   -3.949802   -9.270877 H    1083 MOH     0.0372 ****
6804 O1     16.331045   -2.982662   -7.974750 O    1083 MOH    -0.6497 ****
6805 HO1    15.983480   -3.687299   -7.423207 H    1083 MOH     0.4215 ****
6806 HC1    26.797251   -2.863453    3.575132 H    1084 MOH     0.0372 ****
6807 C1     25.965866   -2.180046    3.405427 C    1084 MOH     0.1166 ****
6808 HC2    25.043838   -2.640142    3.762515 H    1084 MOH     0.0372 ****
6809 HC3    25.895430   -1.991843    2.334160 H    1084 MOH     0.0372 ****
6810 O1     26.293801   -0.959383    4.057379 O    1084 MOH    -0.6497 ****
6811 HO1    26.906947   -1.156567    4.769436 H    1084 MOH     0.4215 ****
6812 HC1    19.303822   -0.634010   12.058292 H    1085 MOH     0.0372 ****
6813 C1     18.412393   -0.007348   12.026472 C    1085 MOH     0.1166 ****
6814 HC2    17.523851   -0.638092   11.986167 H    1085 MOH     0.0372 ****
6815 HC3    18.421630    0.610740   11.128447 H    1085 MOH     0.0372 ****
6816 O1     18.422785    0.840175   13.147944 O    1085 MOH    -0.6497 ****
6817 HO1    19.178537    1.420296   13.031271 H    1085 MOH     0.4215 ****
6818 HC1    26.557073   -0.037151   -0.402344 H    1086 MOH     0.0372 ****
6819 C1     25.547288   -0.358034   -0.658316 C    1086 MOH     0.1166 ****
6820 HC2    24.849848    0.072668    0.060811 H    1086 MOH     0.0372 ****
6821 HC3    25.465881   -1.444382   -0.623668 H    1086 MOH     0.0372 ****
6822 O1     25.192217    0.101246   -1.930401 O    1086 MOH    -0.6497 ****
6823 HO1    25.790929   -0.306186   -2.559726 H    1086 MOH     0.4215 ****
6824 HC1    20.960817    0.627886   10.644786 H    1087 MOH     0.0372 ****
6825 C1     21.185406    1.693822   10.694990 C    1087 MOH     0.1166 ****
6826 HC2    20.826294    2.241691    9.823835 H    1087 MOH     0.0372 ****
6827 HC3    22.271402    1.740363   10.622865 H    1087 MOH     0.0372 ****
6828 O1     20.824562    2.291906   11.961418 O    1087 MOH    -0.6497 ****
6829 HO1    20.752393    3.240675   11.835553 H    1087 MOH     0.4215 ****
6830 HC1    20.047449  -12.823079    2.012426 H    1088 MOH     0.0372 ****
6831 C1     20.628841  -12.065778    2.539221 C    1088 MOH     0.1166 ****
6832 HC2    21.682505  -12.309911    2.402042 H    1088 MOH     0.0372 ****
6833 HC3    20.399055  -12.055164    3.604124 H    1088 MOH     0.0372 ****
6834 O1     20.500669  -10.805516    1.986970 O    1088 MOH    -0.6497 ****
6835 HO1    21.299144  -10.329090    2.228094 H    1088 MOH     0.4215 ****
6836 HC1    15.202903   -1.466020    7.094402 H    1089 MOH     0.0372 ****
6837 C1     15.548158   -2.309052    6.496897 C    1089 MOH     0.1166 ****
6838 HC2    16.288321   -2.841000    7.095817 H    1089 MOH     0.0372 ****
6839 HC3    15.989831   -1.923258    5.578366 H    1089 MOH     0.0372 ****
6840 O1     14.495649   -3.226794    6.163143 O    1089 MOH    -0.6497 ****
6841 HO1    14.774509   -3.739963    5.401589 H    1089 MOH     0.4215 ****
6842 HC1    22.360314    7.071269    0.871863 H    1090 MOH     0.0372 ****
6843 C1     21.867834    7.507686    0.002829 C    1090 MOH     0.1166 ****
6844 HC2    20.925599    7.995135    0.253144 H    1090 MOH     0.0372 ****
6845 HC3    21.615532    6.673227   -0.651952 H    1090 MOH     0.0372 ****
6846 O1     22.705570    8.432777   -0.697207 O    1090 MOH    -0.6497 ****
6847 HO1    22.164592    9.132514   -1.069145 H    1090 MOH     0.4215 ****
6848 HC1    20.267997  -13.145595   -2.650236 H    1091 MOH     0.0372 ****
6849 C1     20.235088  -12.060471   -2.749231 C    1091 MOH     0.1166 ****
6850 HC2    20.680225  -11.591394   -1.871711 H    1091 MOH     0.0372 ****
6851 HC3    19.197589  -11.734689   -2.824184 H    1091 MOH     0.0372 ****
6852 O1     20.920980  -11.683250   -3.914543 O    1091 MOH    -0.6497 ****
6853 HO1    21.022594  -10.729990   -3.874238 H    1091 MOH     0.4215 ****
6854 HC1    28.701352   -4.328657   -1.467246 H    1092 MOH     0.0372 ****
6855 C1     27.795489   -4.004099   -1.978484 C    1092 MOH     0.1166 ****
6856 HC2    26.909834   -4.396834   -1.479267 H    1092 MOH     0.0372 ****
6857 HC3    27.802995   -4.352335   -3.011567 H    1092 MOH     0.0372 ****
6858 O1     27.702536   -2.611973   -1.964342 O    1092 MOH    -0.6497 ****
6859 HO1    27.972736   -2.326607   -1.088237 H    1092 MOH     0.4215 ****
6860 HC1    21.235636    0.235151    0.517602 H    1093 MOH     0.0372 ****
6861 C1     21.899011   -0.586653    0.787010 C    1093 MOH     0.1166 ****
6862 HC2    22.915148   -0.200450    0.864792 H    1093 MOH     0.0372 ****
6863 HC3    21.885155   -1.369265    0.028284 H    1093 MOH     0.0372 ****
6864 O1     21.520847   -1.013680    2.073944 O    1093 MOH    -0.6497 ****
6865 HO1    21.574540   -0.244541    2.645287 H    1093 MOH     0.4215 ****
6866 HC1    25.015548    6.434401    4.620943 H    1094 MOH     0.0372 ****
6867 C1     24.676066    5.688532    3.901815 C    1094 MOH     0.1166 ****
6868 HC2    24.169730    4.851214    4.383355 H    1094 MOH     0.0372 ****
6869 HC3    25.562876    5.291714    3.406841 H    1094 MOH     0.0372 ****
6870 O1     23.834867    6.309069    2.947221 O    1094 MOH    -0.6497 ****
6871 HO1    24.364297    6.994110    2.531442 H    1094 MOH     0.4215 ****
6872 HC1    15.721941   -0.801800   -4.360020 H    1095 MOH     0.0372 ****
6873 C1     15.091474   -1.115334   -3.528463 C    1095 MOH     0.1166 ****
6874 HC2    14.115175   -1.428053   -3.898987 H    1095 MOH     0.0372 ****
6875 HC3    14.921156   -0.288223   -2.838326 H    1095 MOH     0.0372 ****
6876 O1     15.693651   -2.169431   -2.832670 O    1095 MOH    -0.6497 ****
6877 HO1    15.042977   -2.523791   -2.223144 H    1095 MOH     0.4215 ****
6878 HC1    18.384103    3.930615   -1.216224 H    1096 MOH     0.0372 ****
6879 C1     19.040550    4.206182   -0.391030 C    1096 MOH     0.1166 ****
6880 HC2    18.493799    4.170256    0.552251 H    1096 MOH     0.0372 ****
6881 HC3    19.386960    5.228844   -0.541644 H    1096 MOH     0.0372 ****
6882 O1     20.159455    3.334164   -0.325976 O    1096 MOH    -0.6497 ****
6883 HO1    20.764518    3.660762    0.344361 H    1096 MOH     0.4215 ****
6884 HC1    22.160551    8.645474    6.551344 H    1097 MOH     0.0372 ****
6885 C1     21.848782    8.226611    7.508767 C    1097 MOH     0.1166 ****
6886 HC2    21.321661    8.972889    8.101323 H    1097 MOH     0.0372 ****
6887 HC3    22.741365    7.893073    8.036976 H    1097 MOH     0.0372 ****
6888 O1     21.034140    7.112502    7.281786 O    1097 MOH    -0.6497 ****
6889 HO1    20.348248    7.353777    6.655996 H    1097 MOH     0.4215 ****
6890 HC1    14.840327   14.039659   -1.168140 H    1098 MOH     0.0372 ****
6891 C1     13.932732   14.419330   -1.637659 C    1098 MOH     0.1166 ****
6892 HC2    14.063213   14.399325   -2.720240 H    1098 MOH     0.0372 ****
6893 HC3    13.789549   15.450157   -1.315926 H    1098 MOH     0.0372 ****
6894 O1     12.792465   13.626103   -1.263600 O    1098 MOH    -0.6497 ****
6895 HO1    12.019393   14.131106   -1.525936 H    1098 MOH     0.4215 ****
6896 HC1     7.722175   -6.137197   -1.163191 H    1099 MOH     0.0372 ****
6897 C1      8.365921   -5.352952   -1.559877 C    1099 MOH     0.1166 ****
6898 HC2     8.399985   -4.551560   -0.822365 H    1099 MOH     0.0372 ****
6899 HC3     7.966972   -4.912860   -2.474874 H    1099 MOH     0.0372 ****
6900 O1      9.677661   -5.817538   -1.790394 O    1099 MOH    -0.6497 ****
6901 HO1    10.119911   -5.030435   -2.115663 H    1099 MOH     0.4215 ****
6902 HC1    16.997885    5.569731    5.343606 H    1100 MOH     0.0372 ****
6903 C1     17.579854    5.812231    4.454066 C    1100 MOH     0.1166 ****
6904 HC2    17.543481    4.990427    3.739181 H    1100 MOH     0.0372 ****
6905 HC3    18.606960    5.955526    4.791356 H    1100 MOH     0.0372 ****
6906 O1     17.113932    7.056572    3.922321 O    1100 MOH    -0.6497 ****
6907 HO1    17.529624    7.733856    4.460430 H    1100 MOH     0.4215 ****
6908 HC1    14.492185    1.003474    3.015103 H    1101 MOH     0.0372 ****
6909 C1     14.654997    0.779346    4.069400 C    1101 MOH     0.1166 ****
6910 HC2    15.222533   -0.147378    4.161324 H    1101 MOH     0.0372 ****
6911 HC3    13.671192    0.661771    4.523362 H    1101 MOH     0.0372 ****
6912 O1     15.347818    1.855897    4.661248 O    1101 MOH    -0.6497 ****
6913 HO1    16.186130    1.946528    4.203043 H    1101 MOH     0.4215 ****
6914 HC1    14.214479    0.898554   -6.320827 H    1102 MOH     0.0372 ****
6915 C1     14.081111   -0.124108   -6.673674 C    1102 MOH     0.1166 ****
6916 HC2    13.082295   -0.201675   -7.102180 H    1102 MOH     0.0372 ****
6917 HC3    14.154435   -0.840992   -5.856258 H    1102 MOH     0.0372 ****
6918 O1     15.001408   -0.401308   -7.685543 O    1102 MOH    -0.6497 ****
6919 HO1    15.117455   -1.349261   -7.777467 H    1102 MOH     0.4215 ****
6920 HC1    16.401482   -8.376030   -7.363103 H    1103 MOH     0.0372 ****
6921 C1     15.664783   -8.030244   -6.638318 C    1103 MOH     0.1166 ****
6922 HC2    15.394006   -8.838167   -5.957374 H    1103 MOH     0.0372 ****
6923 HC3    14.756034   -7.730590   -7.158749 H    1103 MOH     0.0372 ****
6924 O1     16.104724   -6.948794   -5.844237 O    1103 MOH    -0.6497 ****
6925 HO1    17.052156   -7.017380   -5.708473 H    1103 MOH     0.4215 ****
6926 HC1    17.350068    8.179254   -7.010964 H    1104 MOH     0.0372 ****
6927 C1     16.502518    7.514626   -6.841258 C    1104 MOH     0.1166 ****
6928 HC2    15.637070    8.158434   -6.684987 H    1104 MOH     0.0372 ****
6929 HC3    16.735190    6.912868   -5.963031 H    1104 MOH     0.0372 ****
6930 O1     16.369150    6.812847   -8.056775 O    1104 MOH    -0.6497 ****
6931 HO1    17.214969    6.407049   -8.261836 H    1104 MOH     0.4215 ****
6932 HC1    15.238698  -10.626703   -1.600890 H    1105 MOH     0.0372 ****
6933 C1     16.273888  -10.322558   -1.757160 C    1105 MOH     0.1166 ****
6934 HC2    16.862785  -11.225195   -1.924744 H    1105 MOH     0.0372 ****
6935 HC3    16.646856   -9.765707   -0.898732 H    1105 MOH     0.0372 ****
6936 O1     16.271578   -9.590977   -2.933786 O    1105 MOH    -0.6497 ****
6937 HO1    16.908973   -8.881850   -2.824184 H    1105 MOH     0.4215 ****
6938 HC1    28.301248   -5.434601    2.969849 H    1106 MOH     0.0372 ****
6939 C1     28.685186   -4.837742    2.142534 C    1106 MOH     0.1166 ****
6940 HC2    29.372810   -5.455014    1.564121 H    1106 MOH     0.0372 ****
6941 HC3    29.186326   -3.975930    2.584476 H    1106 MOH     0.0372 ****
6942 O1     27.619975   -4.398059    1.355524 O    1106 MOH    -0.6497 ****
6943 HO1    27.090545   -5.154135    1.093894 H    1106 MOH     0.4215 ****
6944 HC1    18.767463    3.561558    7.570285 H    1107 MOH     0.0372 ****
6945 C1     18.830972    2.638509    6.993993 C    1107 MOH     0.1166 ****
6946 HC2    19.862697    2.434385    6.708322 H    1107 MOH     0.0372 ****
6947 HC3    18.213784    2.750369    6.103039 H    1107 MOH     0.0372 ****
6948 O1     18.313089    1.585228    7.759083 O    1107 MOH    -0.6497 ****
6949 HO1    18.563081    0.760567    7.334819 H    1107 MOH     0.4215 ****
6950 HC1    13.379631    9.185178   -3.761101 H    1108 MOH     0.0372 ****
6951 C1     14.250852    8.529940   -3.780193 C    1108 MOH     0.1166 ****
6952 HC2    14.250275    7.958392   -4.707917 H    1108 MOH     0.0372 ****
6953 HC3    14.223139    7.820812   -2.952171 H    1108 MOH     0.0372 ****
6954 O1     15.429224    9.314593   -3.706654 O    1108 MOH    -0.6497 ****
6955 HO1    15.399779    9.825312   -2.894188 H    1108 MOH     0.4215 ****
6956 HC1    28.193284    0.022045    1.705542 H    1109 MOH     0.0372 ****
6957 C1     28.833565   -0.853239    1.814436 C    1109 MOH     0.1166 ****
6958 HC2    28.683454   -1.254139    2.817114 H    1109 MOH     0.0372 ****
6959 HC3    29.872218   -0.540521    1.708370 H    1109 MOH     0.0372 ****
6960 O1     28.454246   -1.795068    0.811052 O    1109 MOH    -0.6497 ****
6961 HO1    28.383232   -2.668311    1.203496 H    1109 MOH     0.4215 ****
6962 HC1     9.194419    2.420096   -1.236023 H    1110 MOH     0.0372 ****
6963 C1      9.461732    1.415397   -0.907218 C    1110 MOH     0.1166 ****
6964 HC2    10.406277    1.125949   -1.367544 H    1110 MOH     0.0372 ****
6965 HC3     8.699052    0.701779   -1.216931 H    1110 MOH     0.0372 ****
6966 O1      9.629163    1.423154    0.521845 O    1110 MOH    -0.6497 ****
6967 HO1     8.800666    1.610948    0.968736 H    1110 MOH     0.4215 ****
6968 HC1    26.329020    2.235568    6.126373 H    1111 MOH     0.0372 ****
6969 C1     27.187540    2.597276    5.560688 C    1111 MOH     0.1166 ****
6970 HC2    26.839397    3.116567    4.668319 H    1111 MOH     0.0372 ****
6971 HC3    27.816851    1.756692    5.267239 H    1111 MOH     0.0372 ****
6972 O1     27.936940    3.486849    6.356183 O    1111 MOH    -0.6497 ****
6973 HO1    28.104372    3.068394    7.204004 H    1111 MOH     0.4215 ****
6974 HC1    27.128073    3.556659   -3.805648 H    1112 MOH     0.0372 ****
6975 C1     26.681204    3.970623   -4.709331 C    1112 MOH     0.1166 ****
6976 HC2    25.653520    4.289465   -4.537504 H    1112 MOH     0.0372 ****
6977 HC3    26.711803    3.198217   -5.478663 H    1112 MOH     0.0372 ****
6978 O1     27.491803    5.034926   -5.097533 O    1112 MOH    -0.6497 ****
6979 HO1    27.673669    5.581162   -4.329615 H    1112 MOH     0.4215 ****
6980 HC1    20.354022    1.304353   -9.211480 H    1113 MOH     0.0372 ****
6981 C1     19.429684    1.819563   -9.473109 C    1113 MOH     0.1166 ****
6982 HC2    18.716657    1.772614   -8.649330 H    1113 MOH     0.0372 ****
6983 HC3    18.993785    1.373347  -10.366185 H    1113 MOH     0.0372 ****
6984 O1     19.667552    3.168823   -9.752417 O    1113 MOH    -0.6497 ****
6985 HO1    20.172157    3.199034  -10.568418 H    1113 MOH     0.4215 ****
6986 HC1    10.613546   -8.915326   -8.671957 H    1114 MOH     0.0372 ****
6987 C1     11.127387   -8.606282   -7.761911 C    1114 MOH     0.1166 ****
6988 HC2    12.210496   -8.632410   -7.877876 H    1114 MOH     0.0372 ****
6989 HC3    10.824278   -9.245599   -6.931768 H    1114 MOH     0.0372 ****
6990 O1     10.688024   -7.348878   -7.479068 O    1114 MOH    -0.6497 ****
6991 HO1    10.356047   -6.986761   -8.304262 H    1114 MOH     0.4215 ****
6992 HC1    18.910646    6.383779   11.427553 H    1115 MOH     0.0372 ****
6993 C1     19.348278    5.480325   11.002582 C    1115 MOH     0.1166 ****
6994 HC2    19.591919    5.675468    9.958892 H    1115 MOH     0.0372 ****
6995 HC3    18.642756    4.654031   11.095920 H    1115 MOH     0.0372 ****
6996 O1     20.484503    5.182712   11.749994 O    1115 MOH    -0.6497 ****
6997 HO1    21.112083    5.908578   11.701910 H    1115 MOH     0.4215 ****
6998 HC1    15.690764   -0.814047   10.794692 H    1116 MOH     0.0372 ****
6999 C1     15.280268   -1.770573   11.117840 C    1116 MOH     0.1166 ****
7000 HC2    16.059113   -2.533181   11.139053 H    1116 MOH     0.0372 ****
7001 HC3    14.495071   -2.049406   10.415683 H    1116 MOH     0.0372 ****
7002 O1     14.684442   -1.626053   12.373662 O    1116 MOH    -0.6497 ****
7003 HO1    15.305094   -1.176980   12.952075 H    1116 MOH     0.4215 ****
7004 HC1    12.073664    9.911452   -2.234457 H    1117 MOH     0.0372 ****
7005 C1     12.640045   10.216413   -1.354109 C    1117 MOH     0.1166 ****
7006 HC2    13.025715    9.322758   -0.862670 H    1117 MOH     0.0372 ****
7007 HC3    11.985907   10.740196   -0.657609 H    1117 MOH     0.0372 ****
7008 O1     13.734701   11.030869   -1.759282 O    1117 MOH    -0.6497 ****
7009 HO1    13.383672   11.906153   -1.936058 H    1117 MOH     0.4215 ****
7010 HC1     3.990183    0.506636   -2.837619 H    1118 MOH     0.0372 ****
7011 C1      4.549058    1.139013   -2.148190 C    1118 MOH     0.1166 ****
7012 HC2     4.594092    2.139629   -2.578818 H    1118 MOH     0.0372 ****
7013 HC3     5.562308    0.744645   -2.067580 H    1118 MOH     0.0372 ****
7014 O1      3.883951    1.151260   -0.859842 O    1118 MOH    -0.6497 ****
7015 HO1     4.351027    0.533172   -0.294156 H    1118 MOH     0.4215 ****
7016 HC1    12.465108   -5.706495   -4.938434 H    1119 MOH     0.0372 ****
7017 C1     11.582917   -5.123108   -4.677511 C    1119 MOH     0.1166 ****
7018 HC2    11.887180   -4.124533   -4.366384 H    1119 MOH     0.0372 ****
7019 HC3    11.047713   -5.613006   -3.864338 H    1119 MOH     0.0372 ****
7020 O1     10.761925   -5.067994   -5.844945 O    1119 MOH    -0.6497 ****
7021 HO1    10.671281   -5.956751   -6.197791 H    1119 MOH     0.4215 ****
7022 HC1    20.001838  -14.698980    0.512653 H    1120 MOH     0.0372 ****
7023 C1     20.839573  -14.470769   -0.147078 C    1120 MOH     0.1166 ****
7024 HC2    21.196953  -13.469336    0.088389 H    1120 MOH     0.0372 ****
7025 HC3    20.489122  -14.515676   -1.178040 H    1120 MOH     0.0372 ****
7026 O1     21.920373  -15.412598    0.057276 O    1120 MOH    -0.6497 ****
7027 HO1    22.753490  -15.024354   -0.220617 H    1120 MOH     0.4215 ****
7028 HC1    14.195427   -3.843658    0.127986 H    1121 MOH     0.0372 ****
7029 C1     13.883657   -2.800175    0.092631 C    1121 MOH     0.1166 ****
7030 HC2    14.689638   -2.142895    0.420729 H    1121 MOH     0.0372 ****
7031 HC3    13.040726   -2.676884    0.771454 H    1121 MOH     0.0372 ****
7032 O1     13.430437   -2.453980   -1.201374 O    1121 MOH    -0.6497 ****
7033 HO1    13.219127   -1.518275   -1.171676 H    1121 MOH     0.4215 ****
7034 HC1    20.891535    4.169848    7.625440 H    1122 MOH     0.0372 ****
7035 C1     21.817027    4.469502    8.119000 C    1122 MOH     0.1166 ****
7036 HC2    22.261010    3.615447    8.630946 H    1122 MOH     0.0372 ****
7037 HC3    21.571076    5.221496    8.868533 H    1122 MOH     0.0372 ****
7038 O1     22.699219    4.968790    7.092988 O    1122 MOH    -0.6497 ****
7039 HO1    22.508693    5.906945    7.018035 H    1122 MOH     0.4215 ****
7040 HC1     9.920725   -4.672810    0.944695 H    1123 MOH     0.0372 ****
7041 C1     10.692065   -4.965932    1.657458 C    1123 MOH     0.1166 ****
7042 HC2    11.589845   -5.222312    1.094601 H    1123 MOH     0.0372 ****
7043 HC3    10.361821   -5.854280    2.196274 H    1123 MOH     0.0372 ****
7044 O1     10.952450   -3.888565    2.566091 O    1123 MOH    -0.6497 ****
7045 HO1    10.286188   -3.913468    3.256934 H    1123 MOH     0.4215 ****
7046 HC1     9.791399   -4.062070    6.827823 H    1124 MOH     0.0372 ****
7047 C1     10.274641   -4.212714    5.862622 C    1124 MOH     0.1166 ****
7048 HC2    10.730170   -5.202308    5.842823 H    1124 MOH     0.0372 ****
7049 HC3    11.035011   -3.443574    5.724030 H    1124 MOH     0.0372 ****
7050 O1      9.243493   -4.163316    4.876208 O    1124 MOH    -0.6497 ****
7051 HO1     8.730806   -3.362333    5.006316 H    1124 MOH     0.4215 ****
7052 HC1     5.491294   -2.634426    0.494268 H    1125 MOH     0.0372 ****
7053 C1      6.079036   -1.718725    0.555786 C    1125 MOH     0.1166 ****
7054 HC2     6.544958   -1.508069   -0.407293 H    1125 MOH     0.0372 ****
7055 HC3     6.867697   -1.867328    1.292591 H    1125 MOH     0.0372 ****
7056 O1      5.297304   -0.594001    0.931260 O    1125 MOH    -0.6497 ****
7057 HO1     4.897200   -0.758117    1.788273 H    1125 MOH     0.4215 ****
7058 HC1    19.308440    8.038817    2.973384 H    1126 MOH     0.0372 ****
7059 C1     20.254140    8.381746    3.393406 C    1126 MOH     0.1166 ****
7060 HC2    20.140402    9.356234    3.869288 H    1126 MOH     0.0372 ****
7061 HC3    20.983911    8.495239    2.591546 H    1126 MOH     0.0372 ****
7062 O1     20.695813    7.459513    4.365677 O    1126 MOH    -0.6497 ****
7063 HO1    21.527198    7.071269    4.083542 H    1126 MOH     0.4215 ****
7064 HC1    19.226457   -0.026944   -1.955857 H    1127 MOH     0.0372 ****
7065 C1     20.008189    0.646257   -2.307289 C    1127 MOH     0.1166 ****
7066 HC2    20.567641    0.211473   -3.135311 H    1127 MOH     0.0372 ****
7067 HC3    20.693504    0.851198   -1.485631 H    1127 MOH     0.0372 ****
7068 O1     19.434303    1.845691   -2.752767 O    1127 MOH    -0.6497 ****
7069 HO1    19.629447    2.489090   -2.066873 H    1127 MOH     0.4215 ****
7070 HC1    24.126313   22.713955   -1.684328 H    1128 MOH     0.0372 ****
7071 C1     23.089969   22.852759   -1.377444 C    1128 MOH     0.1166 ****
7072 HC2    22.526475   23.216917   -2.235872 H    1128 MOH     0.0372 ****
7073 HC3    23.020110   23.602712   -0.589020 H    1128 MOH     0.0372 ****
7074 O1     22.564581   21.610052   -0.960251 O    1128 MOH    -0.6497 ****
7075 HO1    21.801901   21.762328   -0.398101 H    1128 MOH     0.4215 ****
7076 HC1    18.624742   12.172984    2.406992 H    1129 MOH     0.0372 ****
7077 C1     17.823957   11.779025    3.032781 C    1129 MOH     0.1166 ****
7078 HC2    17.258154   11.048668    2.453661 H    1129 MOH     0.0372 ****
7079 HC3    17.151344   12.555921    3.394113 H    1129 MOH     0.0372 ****
7080 O1     18.321056   11.038054    4.077178 O    1129 MOH    -0.6497 ****
7081 HO1    18.865497   11.634097    4.596194 H    1129 MOH     0.4215 ****
7082 HC1    30.355345    7.307481   -6.499725 H    1130 MOH     0.0372 ****
7083 C1     30.168284    6.321561   -6.074754 C    1130 MOH     0.1166 ****
7084 HC2    29.776263    6.416275   -5.062177 H    1130 MOH     0.0372 ****
7085 HC3    31.125530    5.805127   -6.006165 H    1130 MOH     0.0372 ****
7086 O1     29.327084    5.517721   -6.923989 O    1130 MOH    -0.6497 ****
7087 HO1    28.611170    5.171526   -6.386588 H    1130 MOH     0.4215 ****
7088 HC1    25.175936   21.262632    2.984698 H    1131 MOH     0.0372 ****
7089 C1     25.779844   21.814176    3.705240 C    1131 MOH     0.1166 ****
7090 HC2    26.591599   21.178942    4.058793 H    1131 MOH     0.0372 ****
7091 HC3    25.131480   22.099950    4.533969 H    1131 MOH     0.0372 ****
7092 O1     26.284448   22.938083    3.049752 O    1131 MOH    -0.6497 ****
7093 HO1    27.097358   23.199771    3.488865 H    1131 MOH     0.4215 ****
7094 HC1    23.237771   15.941116    7.369467 H    1132 MOH     0.0372 ****
7095 C1     22.217593   15.648402    7.617661 C    1132 MOH     0.1166 ****
7096 HC2    22.056512   15.705965    8.693171 H    1132 MOH     0.0372 ****
7097 HC3    22.009170   14.626148    7.300878 H    1132 MOH     0.0372 ****
7098 O1     21.331360   16.540833    7.016621 O    1132 MOH    -0.6497 ****
7099 HO1    21.782848   16.917238    6.257188 H    1132 MOH     0.4215 ****
7100 HC1    27.035004   19.889285   -7.527152 H    1133 MOH     0.0372 ****
7101 C1     27.080614   19.434497   -8.517101 C    1133 MOH     0.1166 ****
7102 HC2    27.998024   18.855600   -8.625995 H    1133 MOH     0.0372 ****
7103 HC3    27.070222   20.212209   -9.280069 H    1133 MOH     0.0372 ****
7104 O1     25.977298   18.597996   -8.734183 O    1133 MOH    -0.6497 ****
7105 HO1    26.236528   17.710464   -8.476796 H    1133 MOH     0.4215 ****
7106 HC1    17.836659   18.727819    3.573718 H    1134 MOH     0.0372 ****
7107 C1     18.877044   18.755171    3.247741 C    1134 MOH     0.1166 ****
7108 HC2    19.461323   18.115446    3.910301 H    1134 MOH     0.0372 ****
7109 HC3    19.218258   19.788856    3.301482 H    1134 MOH     0.0372 ****
7110 O1     18.944017   18.273030    1.924745 O    1134 MOH    -0.6497 ****
7111 HO1    18.349346   17.520220    1.880904 H    1134 MOH     0.4215 ****
7112 HC1    20.717060   14.045619   -0.586191 H    1135 MOH     0.0372 ****
7113 C1     21.631583   14.351805   -1.093894 C    1135 MOH     0.1166 ****
7114 HC2    22.226831   15.006227   -0.456791 H    1135 MOH     0.0372 ****
7115 HC3    21.356186   14.898042   -1.996162 H    1135 MOH     0.0372 ****
7116 O1     22.333640   13.212384   -1.491995 O    1135 MOH    -0.6497 ****
7117 HO1    23.268371   13.411201   -1.402193 H    1135 MOH     0.4215 ****
7118 HC1    17.662877   13.707998   -5.441894 H    1136 MOH     0.0372 ****
7119 C1     17.705601   13.949681   -4.379819 C    1136 MOH     0.1166 ****
7120 HC2    18.742522   13.887627   -4.048893 H    1136 MOH     0.0372 ****
7121 HC3    17.108043   13.247902   -3.797870 H    1136 MOH     0.0372 ****
7122 O1     17.272011   15.243420   -4.110412 O    1136 MOH    -0.6497 ****
7123 HO1    16.502403   15.434888   -4.651348 H    1136 MOH     0.4215 ****
7124 HC1    15.059604   17.645553    2.273348 H    1137 MOH     0.0372 ****
7125 C1     14.624860   16.760062    2.736503 C    1137 MOH     0.1166 ****
7126 HC2    14.212632   16.085228    1.986263 H    1137 MOH     0.0372 ****
7127 HC3    13.802713   17.046244    3.393405 H    1137 MOH     0.0372 ****
7128 O1     15.530145   16.057467    3.531998 O    1137 MOH    -0.6497 ****
7129 HO1    15.003601   15.339766    3.892623 H    1137 MOH     0.4215 ****
7130 HC1    28.648698   23.203853    0.042427 H    1138 MOH     0.0372 ****
7131 C1     27.983013   24.062807    0.127279 C    1138 MOH     0.1166 ****
7132 HC2    26.940896   23.742741    0.120208 H    1138 MOH     0.0372 ****
7133 HC3    28.118113   24.687427   -0.755190 H    1138 MOH     0.0372 ****
7134 O1     28.208757   24.859708    1.330775 O    1138 MOH    -0.6497 ****
7135 HO1    28.136011   24.292651    2.100814 H    1138 MOH     0.4215 ****
7136 HC1    28.723176   12.549797    8.992277 H    1139 MOH     0.0372 ****
7137 C1     29.022821   11.502641    8.977428 C    1139 MOH     0.1166 ****
7138 HC2    29.656751   11.314030    8.110515 H    1139 MOH     0.0372 ****
7139 HC3    28.155063   10.848627    8.898232 H    1139 MOH     0.0372 ****
7140 O1     29.727765   11.191555   10.171024 O    1139 MOH    -0.6497 ****
7141 HO1    30.161933   10.343215   10.052230 H    1139 MOH     0.4215 ****
7142 HC1    20.972249   15.817417   -5.055106 H    1140 MOH     0.0372 ****
7143 C1     20.431849   16.686986   -5.428459 C    1140 MOH     0.1166 ****
7144 HC2    19.988444   16.357529   -6.368204 H    1140 MOH     0.0372 ****
7145 HC3    21.154691   17.490010   -5.574830 H    1140 MOH     0.0372 ****
7146 O1     19.440538   17.025423   -4.434974 O    1140 MOH    -0.6497 ****
7147 HO1    18.804876   16.311397   -4.352242 H    1140 MOH     0.4215 ****
7148 HC1    19.415712    9.045394   -9.364215 H    1141 MOH     0.0372 ****
7149 C1     19.828518   10.052951   -9.400985 C    1141 MOH     0.1166 ****
7150 HC2    19.743070   10.523661   -8.421642 H    1141 MOH     0.0372 ****
7151 HC3    19.251745   10.640828  -10.115162 H    1141 MOH     0.0372 ****
7152 O1     21.167970    9.997429   -9.832320 O    1141 MOH    -0.6497 ****
7153 HO1    21.201457    9.336883  -10.528113 H    1141 MOH     0.4215 ****
7154 HC1    29.396944   13.665540    1.568363 H    1142 MOH     0.0372 ****
7155 C1     29.256648   13.511222    0.499218 C    1142 MOH     0.1166 ****
7156 HC2    29.060348   14.465707    0.009900 H    1142 MOH     0.0372 ****
7157 HC3    28.422376   12.832305    0.323148 H    1142 MOH     0.0372 ****
7158 O1     30.432133   12.956821   -0.052326 O    1142 MOH    -0.6497 ****
7159 HO1    31.078765   12.855984    0.649831 H    1142 MOH     0.4215 ****
7160 HC1    26.853138   13.459375   -5.800397 H    1143 MOH     0.0372 ****
7161 C1     26.692058   12.446511   -5.431994 C    1143 MOH     0.1166 ****
7162 HC2    25.940925   12.491418   -4.644277 H    1143 MOH     0.0372 ****
7163 HC3    27.616973   12.046019   -5.016922 H    1143 MOH     0.0372 ****
7164 O1     26.240570   11.599804   -6.488412 O    1143 MOH    -0.6497 ****
7165 HO1    26.645292   10.741666   -6.338505 H    1143 MOH     0.4215 ****
7166 HC1    19.232115   16.146465    5.012680 H    1144 MOH     0.0372 ****
7167 C1     18.840671   15.377325    4.348000 C    1144 MOH     0.1166 ****
7168 HC2    19.340079   15.411210    3.379970 H    1144 MOH     0.0372 ****
7169 HC3    17.769109   15.539808    4.223549 H    1144 MOH     0.0372 ****
7170 O1     18.981545   14.110531    4.932777 O    1144 MOH    -0.6497 ****
7171 HO1    18.535253   14.110122    5.782012 H    1144 MOH     0.4215 ****
7172 HC1    29.586892   17.505523   -0.236174 H    1145 MOH     0.0372 ****
7173 C1     28.523413   17.706382   -0.367695 C    1145 MOH     0.1166 ****
7174 HC2    27.941444   16.785373   -0.340825 H    1145 MOH     0.0372 ****
7175 HC3    28.358291   18.177092   -1.337139 H    1145 MOH     0.0372 ****
7176 O1     28.073079   18.596771    0.611648 O    1145 MOH    -0.6497 ****
7177 HO1    28.183353   19.491243    0.281429 H    1145 MOH     0.4215 ****
7178 HC1    29.067277    9.177258    2.170818 H    1146 MOH     0.0372 ****
7179 C1     28.881370    9.763095    1.270671 C    1146 MOH     0.1166 ****
7180 HC2    28.899268    9.139291    0.376888 H    1146 MOH     0.0372 ****
7181 HC3    29.629038   10.548564    1.161777 H    1146 MOH     0.0372 ****
7182 O1     27.638912   10.351380    1.400072 O    1146 MOH    -0.6497 ****
7183 HO1    27.340422   10.462016    0.494268 H    1146 MOH     0.4215 ****
7184 HC1    28.497432   21.105049   -5.496341 H    1147 MOH     0.0372 ****
7185 C1     28.260141   20.818458   -4.471036 C    1147 MOH     0.1166 ****
7186 HC2    29.022243   20.155871   -4.061621 H    1147 MOH     0.0372 ****
7187 HC3    27.306936   20.289777   -4.490128 H    1147 MOH     0.0372 ****
7188 O1     28.158527   21.944815   -3.633115 O    1147 MOH    -0.6497 ****
7189 HO1    28.932177   22.501258   -3.752616 H    1147 MOH     0.4215 ****
7190 HC1    26.188608    6.122745    0.855599 H    1148 MOH     0.0372 ****
7191 C1     25.781576    7.123361    0.710643 C    1148 MOH     0.1166 ****
7192 HC2    24.735995    7.077637    0.405172 H    1148 MOH     0.0372 ****
7193 HC3    26.338142    7.581007   -0.106066 H    1148 MOH     0.0372 ****
7194 O1     25.936306    7.947206    1.867469 O    1148 MOH    -0.6497 ****
7195 HO1    26.219208    8.827389    1.607254 H    1148 MOH     0.4215 ****
7196 HC1    25.594515   10.528152    3.078036 H    1149 MOH     0.0372 ****
7197 C1     25.682849   11.514072    3.534120 C    1149 MOH     0.1166 ****
7198 HC2    25.081828   11.545915    4.442045 H    1149 MOH     0.0372 ****
7199 HC3    25.330666   12.249327    2.810750 H    1149 MOH     0.0372 ****
7200 O1     27.022879   11.717787    3.841711 O    1149 MOH    -0.6497 ****
7201 HO1    27.507854   11.251160    3.157939 H    1149 MOH     0.4215 ****
7202 HC1    27.558083    5.690818    3.891916 H    1150 MOH     0.0372 ****
7203 C1     28.634264    5.698983    3.722210 C    1150 MOH     0.1166 ****
7204 HC2    29.054575    6.559162    4.241934 H    1150 MOH     0.0372 ****
7205 HC3    28.838069    5.759404    2.653065 H    1150 MOH     0.0372 ****
7206 O1     29.227780    4.554255    4.222842 O    1150 MOH    -0.6497 ****
7207 HO1    28.765900    4.292976    5.021873 H    1150 MOH     0.4215 ****
7208 HC1    24.204255   20.358771   -3.509371 H    1151 MOH     0.0372 ****
7209 C1     23.621709   19.485936   -3.213800 C    1151 MOH     0.1166 ****
7210 HC2    23.957727   18.571051   -3.700997 H    1151 MOH     0.0372 ****
7211 HC3    22.601531   19.665973   -3.551090 H    1151 MOH     0.0372 ****
7212 O1     23.614781   19.338966   -1.810900 O    1151 MOH    -0.6497 ****
7213 HO1    23.428297   20.200779   -1.429770 H    1151 MOH     0.4215 ****
7214 HC1    23.373448   17.344265    0.761554 H    1152 MOH     0.0372 ****
7215 C1     24.405173   17.060533    0.555786 C    1152 MOH     0.1166 ****
7216 HC2    24.675950   16.234646    1.212688 H    1152 MOH     0.0372 ****
7217 HC3    25.053538   17.911322    0.766504 H    1152 MOH     0.0372 ****
7218 O1     24.543160   16.741283   -0.806102 O    1152 MOH    -0.6497 ****
7219 HO1    24.246402   17.534101   -1.258650 H    1152 MOH     0.4215 ****
7220 HC1    28.867514   16.616767   -4.924999 H    1153 MOH     0.0372 ****
7221 C1     28.881947   17.324261   -5.754435 C    1153 MOH     0.1166 ****
7222 HC2    27.891214   17.755371   -5.895856 H    1153 MOH     0.0372 ****
7223 HC3    29.220852   16.831097   -6.665188 H    1153 MOH     0.0372 ****
7224 O1     29.758942   18.375909   -5.447550 O    1153 MOH    -0.6497 ****
7225 HO1    29.955241   18.382849   -4.507806 H    1153 MOH     0.4215 ****
7226 HC1    24.723870    8.869439    8.953386 H    1154 MOH     0.0372 ****
7227 C1     25.716336    8.890260    8.502959 C    1154 MOH     0.1166 ****
7228 HC2    26.239415    9.801470    8.792873 H    1154 MOH     0.0372 ****
7229 HC3    25.656291    8.834738    7.416843 H    1154 MOH     0.0372 ****
7230 O1     26.451302    7.825548    8.951265 O    1154 MOH    -0.6497 ****
7231 HO1    26.004433    7.029464    8.655694 H    1154 MOH     0.4215 ****
7232 HC1    22.663885   21.098925    1.958686 H    1155 MOH     0.0372 ****
7233 C1     22.424284   20.466140    2.812871 C    1155 MOH     0.1166 ****
7234 HC2    21.378703   20.590656    3.093592 H    1155 MOH     0.0372 ****
7235 HC3    23.056483   20.773551    3.646550 H    1155 MOH     0.0372 ****
7236 O1     22.726239   19.116063    2.496794 O    1155 MOH    -0.6497 ****
7237 HO1    22.263781   18.842945    1.701299 H    1155 MOH     0.4215 ****
7238 HC1    20.070427   13.160537   -7.141071 H    1156 MOH     0.0372 ****
7239 C1     20.858511   13.194830   -7.893433 C    1156 MOH     0.1166 ****
7240 HC2    20.438200   13.586340   -8.820450 H    1156 MOH     0.0372 ****
7241 HC3    21.256305   12.197071   -8.080109 H    1156 MOH     0.0372 ****
7242 O1     21.864832   14.095017   -7.543415 O    1156 MOH    -0.6497 ****
7243 HO1    22.692175   13.630022   -7.686958 H    1156 MOH     0.4215 ****
7244 HC1    23.274144   12.539999   -9.859190 H    1157 MOH     0.0372 ****
7245 C1     23.704270   11.970085   -9.034703 C    1157 MOH     0.1166 ****
7246 HC2    24.479652   11.326277   -9.449775 H    1157 MOH     0.0372 ****
7247 HC3    22.958911   11.321378   -8.574377 H    1157 MOH     0.0372 ****
7248 O1     24.273537   12.864557   -8.094958 O    1157 MOH    -0.6497 ****
7249 HO1    24.688075   12.325261   -7.418257 H    1157 MOH     0.4215 ****
7250 HC1    23.425410   15.700658    3.700290 H    1158 MOH     0.0372 ****
7251 C1     22.415624   16.099925    3.792214 C    1158 MOH     0.1166 ****
7252 HC2    21.803056   15.358546    4.305573 H    1158 MOH     0.0372 ****
7253 HC3    22.014366   16.291801    2.796607 H    1158 MOH     0.0372 ****
7254 O1     22.483751   17.288744    4.554475 O    1158 MOH    -0.6497 ****
7255 HO1    22.818037   17.981949    3.980304 H    1158 MOH     0.4215 ****
7256 HC1    30.042421   11.692884   -7.249259 H    1159 MOH     0.0372 ****
7257 C1     30.347840   10.712680   -7.616247 C    1159 MOH     0.1166 ****
7258 HC2    31.297003   10.792288   -8.145870 H    1159 MOH     0.0372 ****
7259 HC3    29.581118   10.320353   -8.283049 H    1159 MOH     0.0372 ****
7260 O1     30.501415    9.792080   -6.542152 O    1159 MOH    -0.6497 ****
7261 HO1    31.350697    9.358112   -6.650339 H    1159 MOH     0.4215 ****
7262 HC1    19.169184   22.936859    2.124149 H    1160 MOH     0.0372 ****
7263 C1     20.031745   23.399812    1.644730 C    1160 MOH     0.1166 ****
7264 HC2    20.818673   23.514530    2.390728 H    1160 MOH     0.0372 ****
7265 HC3    19.714780   24.391856    1.322290 H    1160 MOH     0.0372 ****
7266 O1     20.414528   22.612301    0.485782 O    1160 MOH    -0.6497 ****
7267 HO1    19.720553   22.658433   -0.175362 H    1160 MOH     0.4215 ****
7268 HC1    25.855477   18.374276    8.384872 H    1161 MOH     0.0372 ****
7269 C1     26.463427   19.245069    8.136678 C    1161 MOH     0.1166 ****
7270 HC2    27.513050   18.975626    8.022127 H    1161 MOH     0.0372 ****
7271 HC3    26.406847   19.967261    8.951972 H    1161 MOH     0.0372 ****
7272 O1     26.068519   19.807227    6.926818 O    1161 MOH    -0.6497 ****
7273 HO1    26.350266   19.208735    6.231025 H    1161 MOH     0.4215 ****
7274 HC1    27.328298   15.368344  -12.324164 H    1162 MOH     0.0372 ****
7275 C1     28.252058   15.556546  -12.872172 C    1162 MOH     0.1166 ****
7276 HC2    28.842688   14.641662  -12.834695 H    1162 MOH     0.0372 ****
7277 HC3    28.774560   16.379983  -12.384975 H    1162 MOH     0.0372 ****
7278 O1     27.978972   15.908864  -14.226281 O    1162 MOH    -0.6497 ****
7279 HO1    28.760704   16.330993  -14.589734 H    1162 MOH     0.4215 ****
7280 HC1    24.914974   10.630214   -1.413506 H    1163 MOH     0.0372 ****
7281 C1     25.771761   10.372201   -2.037174 C    1163 MOH     0.1166 ****
7282 HC2    25.957668   11.165427   -2.760545 H    1163 MOH     0.0372 ****
7283 HC3    25.525810    9.468339   -2.594375 H    1163 MOH     0.0372 ****
7284 O1     26.935122   10.181549   -1.236022 O    1163 MOH    -0.6497 ****
7285 HO1    27.631407    9.833722   -1.797465 H    1163 MOH     0.4215 ****
7286 HC1    30.969646   10.290143   -2.230215 H    1164 MOH     0.0372 ****
7287 C1     30.471393    9.514471   -2.810042 C    1164 MOH     0.1166 ****
7288 HC2    31.198277    8.769010   -3.132483 H    1164 MOH     0.0372 ****
7289 HC3    30.008935    9.988448   -3.676248 H    1164 MOH     0.0372 ****
7290 O1     29.496248    8.883728   -2.013133 O    1164 MOH    -0.6497 ****
7291 HO1    29.967943    8.514671   -1.263600 H    1164 MOH     0.4215 ****
7292 HC1    30.294146   21.988906   -6.523767 H    1165 MOH     0.0372 ****
7293 C1     30.887085   21.650468   -7.373002 C    1165 MOH     0.1166 ****
7294 HC2    31.254280   20.654751   -7.124808 H    1165 MOH     0.0372 ****
7295 HC3    31.734058   22.320404   -7.525030 H    1165 MOH     0.0372 ****
7296 O1     30.082836   21.599437   -8.543264 O    1165 MOH    -0.6497 ****
7297 HO1    30.489868   20.949098   -9.120970 H    1165 MOH     0.4215 ****
7298 HC1    26.050622   22.309789   -0.861256 H    1166 MOH     0.0372 ****
7299 C1     26.231909   21.271614   -0.581949 C    1166 MOH     0.1166 ****
7300 HC2    25.572575   20.634338   -1.170969 H    1166 MOH     0.0372 ****
7301 HC3    26.007320   21.116888    0.473762 H    1166 MOH     0.0372 ****
7302 O1     27.562125   20.876021   -0.823072 O    1166 MOH    -0.6497 ****
7303 HO1    27.741680   20.984207   -1.759989 H    1166 MOH     0.4215 ****
7304 HC1    29.939076   16.521645    2.797315 H    1167 MOH     0.0372 ****
7305 C1     30.392873   17.401012    3.254106 C    1167 MOH     0.1166 ****
7306 HC2    31.230031   17.717813    2.631852 H    1167 MOH     0.0372 ****
7307 HC3    30.696559   17.151980    4.270925 H    1167 MOH     0.0372 ****
7308 O1     29.442554   18.398771    3.218750 O    1167 MOH    -0.6497 ****
7309 HO1    29.114619   18.454292    2.317896 H    1167 MOH     0.4215 ****
7310 HC1    21.771879   27.994238    0.468105 H    1168 MOH     0.0372 ****
7311 C1     20.864284   27.930552    1.067731 C    1168 MOH     0.1166 ****
7312 HC2    20.253447   27.083845    0.755190 H    1168 MOH     0.0372 ****
7313 HC3    20.315224   28.862583    0.935502 H    1168 MOH     0.0372 ****
7314 O1     21.236098   27.747248    2.392142 O    1168 MOH    -0.6497 ****
7315 HO1    21.763218   26.944632    2.390728 H    1168 MOH     0.4215 ****
7316 HC1    27.211673   14.066848   -9.828077 H    1169 MOH     0.0372 ****
7317 C1     27.491688   13.158496   -9.294211 C    1169 MOH     0.1166 ****
7318 HC2    28.299978   12.662882   -9.831613 H    1169 MOH     0.0372 ****
7319 HC3    26.660881   12.452634   -9.270877 H    1169 MOH     0.0372 ****
7320 O1     27.929319   13.419774   -7.974750 O    1169 MOH    -0.6497 ****
7321 HO1    27.581754   12.715138   -7.423207 H    1169 MOH     0.4215 ****
7322 HC1    30.902096   15.768427   12.058292 H    1170 MOH     0.0372 ****
7323 C1     30.010667   16.395088   12.026472 C    1170 MOH     0.1166 ****
7324 HC2    29.122125   15.764345   11.986167 H    1170 MOH     0.0372 ****
7325 HC3    30.019904   17.013176   11.128447 H    1170 MOH     0.0372 ****
7326 O1     30.021059   17.242612   13.147944 O    1170 MOH    -0.6497 ****
7327 HO1    30.776811   17.822732   13.031271 H    1170 MOH     0.4215 ****
7328 HC1    26.801177   14.936417    7.094402 H    1171 MOH     0.0372 ****
7329 C1     27.146432   14.093384    6.496897 C    1171 MOH     0.1166 ****
7330 HC2    27.886595   13.561437    7.095817 H    1171 MOH     0.0372 ****
7331 HC3    27.588105   14.479179    5.578366 H    1171 MOH     0.0372 ****
7332 O1     26.093923   13.175642    6.163143 O    1171 MOH    -0.6497 ****
7333 HO1    26.372783   12.662474    5.401589 H    1171 MOH     0.4215 ****
7334 HC1    27.320215   15.600637   -4.360020 H    1172 MOH     0.0372 ****
7335 C1     26.689748   15.287102   -3.528463 C    1172 MOH     0.1166 ****
7336 HC2    25.713449   14.974384   -3.898987 H    1172 MOH     0.0372 ****
7337 HC3    26.519430   16.114213   -2.838326 H    1172 MOH     0.0372 ****
7338 O1     27.291925   14.233005   -2.832670 O    1172 MOH    -0.6497 ****
7339 HO1    26.641251   13.878646   -2.223144 H    1172 MOH     0.4215 ****
7340 HC1    19.320449   10.265240   -1.163191 H    1173 MOH     0.0372 ****
7341 C1     19.964195   11.049485   -1.559877 C    1173 MOH     0.1166 ****
7342 HC2    19.998259   11.850876   -0.822365 H    1173 MOH     0.0372 ****
7343 HC3    19.565246   11.489577   -2.474874 H    1173 MOH     0.0372 ****
7344 O1     21.275935   10.584898   -1.790394 O    1173 MOH    -0.6497 ****
7345 HO1    21.718185   11.372001   -2.115663 H    1173 MOH     0.4215 ****
7346 HC1    28.596159   21.972168    5.343606 H    1174 MOH     0.0372 ****
7347 C1     29.178128   22.214667    4.454066 C    1174 MOH     0.1166 ****
7348 HC2    29.141755   21.392864    3.739181 H    1174 MOH     0.0372 ****
7349 HC3    30.205234   22.357963    4.791356 H    1174 MOH     0.0372 ****
7350 O1     28.712206   23.459008    3.922321 O    1174 MOH    -0.6497 ****
7351 HO1    29.127898   24.136292    4.460430 H    1174 MOH     0.4215 ****
7352 HC1    26.090459   17.405911    3.015103 H    1175 MOH     0.0372 ****
7353 C1     26.253271   17.181783    4.069400 C    1175 MOH     0.1166 ****
7354 HC2    26.820807   16.255059    4.161324 H    1175 MOH     0.0372 ****
7355 HC3    25.269467   17.064207    4.523362 H    1175 MOH     0.0372 ****
7356 O1     26.946092   18.258333    4.661248 O    1175 MOH    -0.6497 ****
7357 HO1    27.784404   18.348964    4.203043 H    1175 MOH     0.4215 ****
7358 HC1    24.025854   11.339750    7.774639 H    1176 MOH     0.0372 ****
7359 C1     23.632678   11.774534    8.693171 C    1176 MOH     0.1166 ****
7360 HC2    23.448504   12.839245    8.551750 H    1176 MOH     0.0372 ****
7361 HC3    24.331850   11.630422    9.516950 H    1176 MOH     0.0372 ****
7362 O1     22.468163   11.113580    9.021976 O    1176 MOH    -0.6497 ****
7363 HO1    22.043811   11.563061    9.756659 H    1176 MOH     0.4215 ****
7364 HC1    25.812753   17.300991   -6.320827 H    1177 MOH     0.0372 ****
7365 C1     25.679385   16.278329   -6.673674 C    1177 MOH     0.1166 ****
7366 HC2    24.680569   16.200762   -7.102180 H    1177 MOH     0.0372 ****
7367 HC3    25.752709   15.561445   -5.856258 H    1177 MOH     0.0372 ****
7368 O1     26.599682   16.001128   -7.685543 O    1177 MOH    -0.6497 ****
7369 HO1    26.715729   15.053176   -7.777467 H    1177 MOH     0.4215 ****
7370 HC1    27.999756    8.026406   -7.363103 H    1178 MOH     0.0372 ****
7371 C1     27.263057    8.372193   -6.638318 C    1178 MOH     0.1166 ****
7372 HC2    26.992280    7.564269   -5.957374 H    1178 MOH     0.0372 ****
7373 HC3    26.354308    8.671847   -7.158749 H    1178 MOH     0.0372 ****
7374 O1     27.702998    9.453642   -5.844237 O    1178 MOH    -0.6497 ****
7375 HO1    28.650430    9.385057   -5.708473 H    1178 MOH     0.4215 ****
7376 HC1    28.948343   24.581691   -7.010964 H    1179 MOH     0.0372 ****
7377 C1     28.100792   23.917063   -6.841258 C    1179 MOH     0.1166 ****
7378 HC2    27.235344   24.560870   -6.684987 H    1179 MOH     0.0372 ****
7379 HC3    28.333465   23.315305   -5.963031 H    1179 MOH     0.0372 ****
7380 O1     27.967424   23.215284   -8.056775 O    1179 MOH    -0.6497 ****
7381 HO1    28.813243   22.809485   -8.261836 H    1179 MOH     0.4215 ****
7382 HC1    26.836973    5.775734   -1.600890 H    1180 MOH     0.0372 ****
7383 C1     27.872162    6.079878   -1.757160 C    1180 MOH     0.1166 ****
7384 HC2    28.461059    5.177242   -1.924744 H    1180 MOH     0.0372 ****
7385 HC3    28.245130    6.636729   -0.898732 H    1180 MOH     0.0372 ****
7386 O1     27.869852    6.811459   -2.933786 O    1180 MOH    -0.6497 ****
7387 HO1    28.507247    7.520587   -2.824184 H    1180 MOH     0.4215 ****
7388 HC1    30.365737   19.963995    7.570285 H    1181 MOH     0.0372 ****
7389 C1     30.429246   19.040945    6.993993 C    1181 MOH     0.1166 ****
7390 HC2    31.460971   18.836821    6.708322 H    1181 MOH     0.0372 ****
7391 HC3    29.812058   19.152805    6.103039 H    1181 MOH     0.0372 ****
7392 O1     29.911363   17.987665    7.759083 O    1181 MOH    -0.6497 ****
7393 HO1    30.161355   17.163003    7.334819 H    1181 MOH     0.4215 ****
7394 HC1    18.314705   19.271605   -0.912168 H    1182 MOH     0.0372 ****
7395 C1     18.148428   20.342033   -0.793374 C    1182 MOH     0.1166 ****
7396 HC2    18.501767   20.662916    0.186676 H    1182 MOH     0.0372 ****
7397 HC3    17.081485   20.555138   -0.865499 H    1182 MOH     0.0372 ****
7398 O1     18.835475   21.056467   -1.803122 O    1182 MOH    -0.6497 ****
7399 HO1    18.744831   20.526561   -2.597910 H    1182 MOH     0.4215 ****
7400 HC1    20.792693   18.822532   -1.236023 H    1183 MOH     0.0372 ****
7401 C1     21.060006   17.817833   -0.907218 C    1183 MOH     0.1166 ****
7402 HC2    22.004551   17.528385   -1.367544 H    1183 MOH     0.0372 ****
7403 HC3    20.297326   17.104215   -1.216931 H    1183 MOH     0.0372 ****
7404 O1     21.227437   17.825590    0.521845 O    1183 MOH    -0.6497 ****
7405 HO1    20.398940   18.013384    0.968736 H    1183 MOH     0.4215 ****
7406 HC1    23.674248   24.900125    0.840750 H    1184 MOH     0.0372 ****
7407 C1     23.303589   24.503307    1.785445 C    1184 MOH     0.1166 ****
7408 HC2    24.158067   24.380425    2.450832 H    1184 MOH     0.0372 ****
7409 HC3    22.831894   23.527594    1.669479 H    1184 MOH     0.0372 ****
7410 O1     22.448533   25.438604    2.347595 O    1184 MOH    -0.6497 ****
7411 HO1    22.633285   25.440237    3.289461 H    1184 MOH     0.4215 ****
7412 HC1    23.558200   11.845569   12.992380 H    1185 MOH     0.0372 ****
7413 C1     24.452516   11.403028   13.432201 C    1185 MOH     0.1166 ****
7414 HC2    24.518334   11.676146   14.485083 H    1185 MOH     0.0372 ****
7415 HC3    25.342790   11.772901   12.923084 H    1185 MOH     0.0372 ****
7416 O1     24.401132    9.990489   13.316235 O    1185 MOH    -0.6497 ****
7417 HO1    25.306417    9.682261   13.404623 H    1185 MOH     0.4215 ****
7418 HC1    22.211820    7.487110   -8.671957 H    1186 MOH     0.0372 ****
7419 C1     22.725661    7.796154   -7.761911 C    1186 MOH     0.1166 ****
7420 HC2    23.808770    7.770026   -7.877876 H    1186 MOH     0.0372 ****
7421 HC3    22.422552    7.156837   -6.931768 H    1186 MOH     0.0372 ****
7422 O1     22.286298    9.053559   -7.479068 O    1186 MOH    -0.6497 ****
7423 HO1    21.954321    9.415675   -8.304262 H    1186 MOH     0.4215 ****
7424 HC1    22.962375   20.225274    6.578922 H    1187 MOH     0.0372 ****
7425 C1     22.895980   19.964811    7.635339 C    1187 MOH     0.1166 ****
7426 HC2    23.003944   18.886627    7.759083 H    1187 MOH     0.0372 ****
7427 HC3    21.912175   20.279571    7.983943 H    1187 MOH     0.0372 ****
7428 O1     23.879784   20.683736    8.358709 O    1187 MOH    -0.6497 ****
7429 HO1    24.702509   20.574734    7.875755 H    1187 MOH     0.4215 ****
7430 HC1    27.289038   15.588389   10.794692 H    1188 MOH     0.0372 ****
7431 C1     26.878542   14.631864   11.117840 C    1188 MOH     0.1166 ****
7432 HC2    27.657387   13.869256   11.139053 H    1188 MOH     0.0372 ****
7433 HC3    26.093345   14.353030   10.415683 H    1188 MOH     0.0372 ****
7434 O1     26.282716   14.776384   12.373662 O    1188 MOH    -0.6497 ****
7435 HO1    26.903368   15.225457   12.952075 H    1188 MOH     0.4215 ****
7436 HC1    15.588457   16.909073   -2.837619 H    1189 MOH     0.0372 ****
7437 C1     16.147332   17.541449   -2.148190 C    1189 MOH     0.1166 ****
7438 HC2    16.192366   18.542066   -2.578818 H    1189 MOH     0.0372 ****
7439 HC3    17.160582   17.147081   -2.067580 H    1189 MOH     0.0372 ****
7440 O1     15.482225   17.553697   -0.859842 O    1189 MOH    -0.6497 ****
7441 HO1    15.949301   16.935609   -0.294156 H    1189 MOH     0.4215 ****
7442 HC1    24.063382   10.695942   -4.938434 H    1190 MOH     0.0372 ****
7443 C1     23.181191   11.279329   -4.677511 C    1190 MOH     0.1166 ****
7444 HC2    23.485454   12.277904   -4.366384 H    1190 MOH     0.0372 ****
7445 HC3    22.645987   10.789431   -3.864338 H    1190 MOH     0.0372 ****
7446 O1     22.360199   11.334442   -5.844945 O    1190 MOH    -0.6497 ****
7447 HO1    22.269555   10.445686   -6.197791 H    1190 MOH     0.4215 ****
7448 HC1    25.793701   12.558779    0.127986 H    1191 MOH     0.0372 ****
7449 C1     25.481931   13.602261    0.092631 C    1191 MOH     0.1166 ****
7450 HC2    26.287912   14.259541    0.420729 H    1191 MOH     0.0372 ****
7451 HC3    24.639000   13.725552    0.771454 H    1191 MOH     0.0372 ****
7452 O1     25.028712   13.948456   -1.201374 O    1191 MOH    -0.6497 ****
7453 HO1    24.817401   14.884161   -1.171676 H    1191 MOH     0.4215 ****
7454 HC1    21.518999   11.729627    0.944695 H    1192 MOH     0.0372 ****
7455 C1     22.290339   11.436504    1.657458 C    1192 MOH     0.1166 ****
7456 HC2    23.188119   11.180124    1.094601 H    1192 MOH     0.0372 ****
7457 HC3    21.960095   10.548156    2.196274 H    1192 MOH     0.0372 ****
7458 O1     22.550724   12.513872    2.566091 O    1192 MOH    -0.6497 ****
7459 HO1    21.884462   12.488968    3.256934 H    1192 MOH     0.4215 ****
7460 HC1    21.389673   12.340366    6.827823 H    1193 MOH     0.0372 ****
7461 C1     21.872915   12.189722    5.862622 C    1193 MOH     0.1166 ****
7462 HC2    22.328444   11.200129    5.842823 H    1193 MOH     0.0372 ****
7463 HC3    22.633285   12.958862    5.724030 H    1193 MOH     0.0372 ****
7464 O1     20.841767   12.239120    4.876208 O    1193 MOH    -0.6497 ****
7465 HO1    20.329080   13.040104    5.006316 H    1193 MOH     0.4215 ****
7466 HC1    17.089568   13.768010    0.494268 H    1194 MOH     0.0372 ****
7467 C1     17.677311   14.683711    0.555786 C    1194 MOH     0.1166 ****
7468 HC2    18.143232   14.894367   -0.407293 H    1194 MOH     0.0372 ****
7469 HC3    18.465971   14.535109    1.292591 H    1194 MOH     0.0372 ****
7470 O1     16.895578   15.808435    0.931260 O    1194 MOH    -0.6497 ****
7471 HO1    16.495475   15.644319    1.788273 H    1194 MOH     0.4215 ****
7472 HC1     2.392771  -29.950728  -11.428825 H    1195 MOH     0.0372 ****
7473 C1      1.938396  -29.652706  -12.373520 C    1195 MOH     0.1166 ****
7474 HC2     0.857596  -29.787428  -12.325437 H    1195 MOH     0.0372 ****
7475 HC3     2.361016  -30.277326  -13.161237 H    1195 MOH     0.0372 ****
7476 O1      2.220143  -28.295281  -12.633028 O    1195 MOH    -0.6497 ****
7477 HO1     1.950520  -28.100955  -13.533882 H    1195 MOH     0.4215 ****
7478 HC1     3.433733  -27.037060   -8.305535 H    1196 MOH     0.0372 ****
7479 C1      3.091942  -27.706587   -9.094666 C    1196 MOH     0.1166 ****
7480 HC2     2.593688  -28.582688   -8.678887 H    1196 MOH     0.0372 ****
7481 HC3     3.964318  -28.024612   -9.665301 H    1196 MOH     0.0372 ****
7482 O1      2.310787  -26.976639  -10.016733 O    1196 MOH    -0.6497 ****
7483 HO1     2.337922  -27.463679  -10.843341 H    1196 MOH     0.4215 ****
7484 HC1     7.457865  -30.905212  -20.218162 H    1197 MOH     0.0372 ****
7485 C1      6.877050  -30.523908  -19.378120 C    1197 MOH     0.1166 ****
7486 HC2     7.174386  -29.516760  -19.086085 H    1197 MOH     0.0372 ****
7487 HC3     7.084896  -31.179147  -18.531713 H    1197 MOH     0.0372 ****
7488 O1      5.497760  -30.567591  -19.663084 O    1197 MOH    -0.6497 ****
7489 HO1     5.092460  -31.242425  -19.113662 H    1197 MOH     0.4215 ****
7490 HC1    -1.424669  -29.414289  -13.736822 H    1198 MOH     0.0372 ****
7491 C1     -2.332264  -29.477976  -13.137195 C    1198 MOH     0.1166 ****
7492 HC2    -2.943101  -30.324683  -13.449736 H    1198 MOH     0.0372 ****
7493 HC3    -2.881324  -28.545945  -13.269424 H    1198 MOH     0.0372 ****
7494 O1     -1.960450  -29.661280  -11.812784 O    1198 MOH    -0.6497 ****
7495 HO1    -1.433330  -30.463896  -11.814198 H    1198 MOH     0.4215 ****
7496 HC1     3.242053  -26.966433  -15.373067 H    1199 MOH     0.0372 ****
7497 C1      2.334458  -26.586762  -15.842586 C    1199 MOH     0.1166 ****
7498 HC2     2.464939  -26.606766  -16.925166 H    1199 MOH     0.0372 ****
7499 HC3     2.191275  -25.555935  -15.520852 H    1199 MOH     0.0372 ****
7500 O1      1.194191  -27.379988  -15.468526 O    1199 MOH    -0.6497 ****
7501 HO1     0.421119  -26.874985  -15.730863 H    1199 MOH     0.4215 ****
7502 HC1     0.477700  -32.508403  -13.364177 H    1200 MOH     0.0372 ****
7503 C1      0.107041  -32.905221  -12.419482 C    1200 MOH     0.1166 ****
7504 HC2     0.961519  -33.028103  -11.754094 H    1200 MOH     0.0372 ****
7505 HC3    -0.364654  -33.880934  -12.535447 H    1200 MOH     0.0372 ****
7506 O1     -0.748015  -31.969924  -11.857332 O    1200 MOH    -0.6497 ****
7507 HO1    -0.563263  -31.968291  -10.915466 H    1200 MOH     0.4215 ****
7508 HC1     0.475390  -31.094639  -16.439384 H    1201 MOH     0.0372 ****
7509 C1      1.041771  -30.789678  -15.559036 C    1201 MOH     0.1166 ****
7510 HC2     1.427441  -31.683333  -15.067597 H    1201 MOH     0.0372 ****
7511 HC3     0.387633  -30.265895  -14.862536 H    1201 MOH     0.0372 ****
7512 O1      2.136427  -29.975223  -15.964208 O    1201 MOH    -0.6497 ****
7513 HO1     1.785398  -29.099938  -16.140985 H    1201 MOH     0.4215 ****
7514 HC1    12.528039  -18.292136  -15.889255 H    1202 MOH     0.0372 ****
7515 C1     11.491695  -18.153332  -15.582370 C    1202 MOH     0.1166 ****
7516 HC2    10.928202  -17.789174  -16.440798 H    1202 MOH     0.0372 ****
7517 HC3    11.421836  -17.403380  -14.793946 H    1202 MOH     0.0372 ****
7518 O1     10.966307  -19.396040  -15.165177 O    1202 MOH    -0.6497 ****
7519 HO1    10.203627  -19.243763  -14.603028 H    1202 MOH     0.4215 ****
7520 HC1     7.026468  -28.833107  -11.797935 H    1203 MOH     0.0372 ****
7521 C1      6.225684  -29.227067  -11.172145 C    1203 MOH     0.1166 ****
7522 HC2     5.659880  -29.957423  -11.751266 H    1203 MOH     0.0372 ****
7523 HC3     5.553070  -28.450170  -10.810814 H    1203 MOH     0.0372 ****
7524 O1      6.722782  -29.968037  -10.127749 O    1203 MOH    -0.6497 ****
7525 HO1     7.267223  -29.371995   -9.608732 H    1203 MOH     0.4215 ****
7526 HC1    25.394290  -22.844921  -13.072141 H    1204 MOH     0.0372 ****
7527 C1     25.827880  -22.651820  -12.091384 C    1204 MOH     0.1166 ****
7528 HC2    26.113668  -21.600989  -12.040472 H    1204 MOH     0.0372 ****
7529 HC3    26.715845  -23.271132  -11.964812 H    1204 MOH     0.0372 ****
7530 O1     24.873520  -22.966579  -11.083757 O    1204 MOH    -0.6497 ****
7531 HO1    25.074438  -23.858193  -10.791015 H    1204 MOH     0.4215 ****
7532 HC1    13.577662  -19.743459  -11.220229 H    1205 MOH     0.0372 ****
7533 C1     14.181570  -19.191916  -10.499687 C    1205 MOH     0.1166 ****
7534 HC2    14.993325  -19.827150  -10.146134 H    1205 MOH     0.0372 ****
7535 HC3    13.533206  -18.906142   -9.670958 H    1205 MOH     0.0372 ****
7536 O1     14.686174  -18.068008  -11.155175 O    1205 MOH    -0.6497 ****
7537 HO1    15.499084  -17.806321  -10.716062 H    1205 MOH     0.4215 ****
7538 HC1    11.639497  -25.064975   -6.835460 H    1206 MOH     0.0372 ****
7539 C1     10.619319  -25.357689   -6.587265 C    1206 MOH     0.1166 ****
7540 HC2    10.458238  -25.300126   -5.511756 H    1206 MOH     0.0372 ****
7541 HC3    10.410896  -26.379943   -6.904049 H    1206 MOH     0.0372 ****
7542 O1      9.733086  -24.465259   -7.188306 O    1206 MOH    -0.6497 ****
7543 HO1    10.184574  -24.088854   -7.947739 H    1206 MOH     0.4215 ****
7544 HC1    24.346976  -20.092103  -16.158662 H    1207 MOH     0.0372 ****
7545 C1     24.395474  -21.179676  -16.209574 C    1207 MOH     0.1166 ****
7546 HC2    24.017309  -21.534444  -17.167704 H    1207 MOH     0.0372 ****
7547 HC3    23.788679  -21.626300  -15.421857 H    1207 MOH     0.0372 ****
7548 O1     25.732040  -21.614053  -16.136035 O    1207 MOH    -0.6497 ****
7549 HO1    25.699708  -22.573436  -16.114822 H    1207 MOH     0.4215 ****
7550 HC1    15.436730  -21.116806  -21.732078 H    1208 MOH     0.0372 ****
7551 C1     15.482341  -21.571595  -22.722028 C    1208 MOH     0.1166 ****
7552 HC2    16.399750  -22.150491  -22.830922 H    1208 MOH     0.0372 ****
7553 HC3    15.471948  -20.793882  -23.484996 H    1208 MOH     0.0372 ****
7554 O1     14.379024  -22.408096  -22.939109 O    1208 MOH    -0.6497 ****
7555 HO1    14.638254  -23.295627  -22.681723 H    1208 MOH     0.4215 ****
7556 HC1     6.238385  -22.278273  -10.631209 H    1209 MOH     0.0372 ****
7557 C1      7.278770  -22.250920  -10.957185 C    1209 MOH     0.1166 ****
7558 HC2     7.863049  -22.890645  -10.294626 H    1209 MOH     0.0372 ****
7559 HC3     7.619984  -21.217235  -10.903445 H    1209 MOH     0.0372 ****
7560 O1      7.345743  -22.733061  -12.280182 O    1209 MOH    -0.6497 ****
7561 HO1     6.751072  -23.485871  -12.324022 H    1209 MOH     0.4215 ****
7562 HC1     9.118786  -26.960472  -14.791118 H    1210 MOH     0.0372 ****
7563 C1     10.033309  -26.654286  -15.298821 C    1210 MOH     0.1166 ****
7564 HC2    10.628557  -25.999864  -14.661717 H    1210 MOH     0.0372 ****
7565 HC3     9.757913  -26.108050  -16.201089 H    1210 MOH     0.0372 ****
7566 O1     10.735367  -27.793707  -15.696922 O    1210 MOH    -0.6497 ****
7567 HO1    11.670097  -27.594890  -15.607119 H    1210 MOH     0.4215 ****
7568 HC1     6.064603  -27.298094  -19.646820 H    1211 MOH     0.0372 ****
7569 C1      6.107327  -27.056411  -18.584746 C    1211 MOH     0.1166 ****
7570 HC2     7.144248  -27.118464  -18.253820 H    1211 MOH     0.0372 ****
7571 HC3     5.509769  -27.758189  -18.002797 H    1211 MOH     0.0372 ****
7572 O1      5.673737  -25.762672  -18.315338 O    1211 MOH    -0.6497 ****
7573 HO1     4.904129  -25.571203  -18.856275 H    1211 MOH     0.4215 ****
7574 HC1     3.461330  -23.360539  -11.931578 H    1212 MOH     0.0372 ****
7575 C1      3.026586  -24.246029  -11.468423 C    1212 MOH     0.1166 ****
7576 HC2     2.614358  -24.920864  -12.218664 H    1212 MOH     0.0372 ****
7577 HC3     2.204439  -23.959847  -10.811521 H    1212 MOH     0.0372 ****
7578 O1      3.931871  -24.948625  -10.672928 O    1212 MOH    -0.6497 ****
7579 HO1     3.405327  -25.666325  -10.312304 H    1212 MOH     0.4215 ****
7580 HC1    29.143025  -22.426467  -13.905820 H    1213 MOH     0.0372 ****
7581 C1     29.225586  -21.486679  -13.359934 C    1213 MOH     0.1166 ****
7582 HC2    28.398821  -20.831032  -13.632877 H    1213 MOH     0.0372 ****
7583 HC3    30.182833  -21.024542  -13.604593 H    1213 MOH     0.0372 ****
7584 O1     29.184594  -21.844713  -12.018552 O    1213 MOH    -0.6497 ****
7585 HO1    29.408606  -21.101701  -11.454281 H    1213 MOH     0.4215 ****
7586 HC1    17.050424  -17.802238  -14.162500 H    1214 MOH     0.0372 ****
7587 C1     16.384739  -16.943284  -14.077647 C    1214 MOH     0.1166 ****
7588 HC2    15.342622  -17.263351  -14.084718 H    1214 MOH     0.0372 ****
7589 HC3    16.519839  -16.318664  -14.960116 H    1214 MOH     0.0372 ****
7590 O1     16.610483  -16.146383  -12.874151 O    1214 MOH    -0.6497 ****
7591 HO1    16.537737  -16.713440  -12.104112 H    1214 MOH     0.4215 ****
7592 HC1     9.373975  -25.188675  -19.260033 H    1215 MOH     0.0372 ****
7593 C1      8.833575  -24.319106  -19.633385 C    1215 MOH     0.1166 ****
7594 HC2     8.390170  -24.648562  -20.573130 H    1215 MOH     0.0372 ****
7595 HC3     9.556417  -23.516081  -19.779756 H    1215 MOH     0.0372 ****
7596 O1      7.842264  -23.980668  -18.639900 O    1215 MOH    -0.6497 ****
7597 HO1     7.206602  -24.694694  -18.557169 H    1215 MOH     0.4215 ****
7598 HC1    13.991045  -13.548291  -11.428825 H    1216 MOH     0.0372 ****
7599 C1     13.536670  -13.250270  -12.373520 C    1216 MOH     0.1166 ****
7600 HC2    12.455870  -13.384992  -12.325437 H    1216 MOH     0.0372 ****
7601 HC3    13.959290  -13.874890  -13.161237 H    1216 MOH     0.0372 ****
7602 O1     13.818417  -11.892844  -12.633028 O    1216 MOH    -0.6497 ****
7603 HO1    13.548794  -11.698518  -13.533882 H    1216 MOH     0.4215 ****
7604 HC1    15.032007  -10.634623   -8.305535 H    1217 MOH     0.0372 ****
7605 C1     14.690216  -11.304150   -9.094666 C    1217 MOH     0.1166 ****
7606 HC2    14.191963  -12.180251   -8.678887 H    1217 MOH     0.0372 ****
7607 HC3    15.562592  -11.622176   -9.665301 H    1217 MOH     0.0372 ****
7608 O1     13.909061  -10.574202  -10.016733 O    1217 MOH    -0.6497 ****
7609 HO1    13.936196  -11.061243  -10.843341 H    1217 MOH     0.4215 ****
7610 HC1    20.561868  -19.304184  -11.346094 H    1218 MOH     0.0372 ****
7611 C1     21.044533  -20.270099  -11.493172 C    1218 MOH     0.1166 ****
7612 HC2    20.271461  -21.024134  -11.640957 H    1218 MOH     0.0372 ****
7613 HC3    21.609181  -20.512599  -10.593732 H    1218 MOH     0.0372 ****
7614 O1     21.952705  -20.242338  -12.616057 O    1218 MOH    -0.6497 ****
7615 HO1    22.664000  -19.638131  -12.386955 H    1218 MOH     0.4215 ****
7616 HC1    23.126458  -16.032482   -3.210123 H    1219 MOH     0.0372 ****
7617 C1     22.415162  -16.858368   -3.220730 C    1219 MOH     0.1166 ****
7618 HC2    22.777161  -17.589541   -3.944100 H    1219 MOH     0.0372 ****
7619 HC3    21.426161  -16.486046   -3.490844 H    1219 MOH     0.0372 ****
7620 O1     22.351654  -17.431957   -1.935917 O    1219 MOH    -0.6497 ****
7621 HO1    22.075680  -16.748141   -1.321441 H    1219 MOH     0.4215 ****
7622 HC1    19.056139  -14.502776  -20.218162 H    1220 MOH     0.0372 ****
7623 C1     18.475324  -14.121472  -19.378120 C    1220 MOH     0.1166 ****
7624 HC2    18.772660  -13.114323  -19.086085 H    1220 MOH     0.0372 ****
7625 HC3    18.683170  -14.776710  -18.531713 H    1220 MOH     0.0372 ****
7626 O1     17.096034  -14.165154  -19.663084 O    1220 MOH    -0.6497 ****
7627 HO1    16.690735  -14.839989  -19.113662 H    1220 MOH     0.4215 ****
7628 HC1     7.633841  -24.859627   -9.192246 H    1221 MOH     0.0372 ****
7629 C1      7.242397  -25.628766   -9.856927 C    1221 MOH     0.1166 ****
7630 HC2     7.741805  -25.594882  -10.824956 H    1221 MOH     0.0372 ****
7631 HC3     6.170835  -25.466283   -9.981378 H    1221 MOH     0.0372 ****
7632 O1      7.383271  -26.895561   -9.272150 O    1221 MOH    -0.6497 ****
7633 HO1     6.936979  -26.895969   -8.422914 H    1221 MOH     0.4215 ****
7634 HC1    17.988618  -23.500568  -14.441100 H    1222 MOH     0.0372 ****
7635 C1     16.925139  -23.299710  -14.572622 C    1222 MOH     0.1166 ****
7636 HC2    16.343170  -24.220718  -14.545752 H    1222 MOH     0.0372 ****
7637 HC3    16.760017  -22.829000  -15.542065 H    1222 MOH     0.0372 ****
7638 O1     16.474806  -22.409320  -13.593279 O    1222 MOH    -0.6497 ****
7639 HO1    16.585079  -21.514848  -13.923498 H    1222 MOH     0.4215 ****
7640 HC1    21.701558  -20.573020  -17.237707 H    1223 MOH     0.0372 ****
7641 C1     21.297412  -20.227233  -18.188766 C    1223 MOH     0.1166 ****
7642 HC2    20.364414  -20.750608  -18.400898 H    1223 MOH     0.0372 ****
7643 HC3    22.018523  -20.372161  -18.992746 H    1223 MOH     0.0372 ****
7644 O1     21.050884  -18.861234  -18.034617 O    1223 MOH    -0.6497 ****
7645 HO1    21.875340  -18.405629  -17.846526 H    1223 MOH     0.4215 ****
7646 HC1    16.899158  -19.901043  -19.701267 H    1224 MOH     0.0372 ****
7647 C1     16.661867  -20.187633  -18.675963 C    1224 MOH     0.1166 ****
7648 HC2    17.423969  -20.850220  -18.266548 H    1224 MOH     0.0372 ****
7649 HC3    15.708662  -20.716315  -18.695054 H    1224 MOH     0.0372 ****
7650 O1     16.560253  -19.061276  -17.838041 O    1224 MOH    -0.6497 ****
7651 HO1    17.333903  -18.504834  -17.957542 H    1224 MOH     0.4215 ****
7652 HC1    23.941099  -18.685688  -18.904358 H    1225 MOH     0.0372 ****
7653 C1     24.361410  -17.802238  -18.423525 C    1225 MOH     0.1166 ****
7654 HC2    24.614867  -17.060451  -19.180837 H    1225 MOH     0.0372 ****
7655 HC3    25.248220  -18.085154  -17.857133 H    1225 MOH     0.0372 ****
7656 O1     23.356243  -17.305808  -17.600453 O    1225 MOH    -0.6497 ****
7657 HO1    23.712469  -17.109441  -16.731419 H    1225 MOH     0.4215 ****
7658 HC1    18.292304  -16.377860   -6.328464 H    1226 MOH     0.0372 ****
7659 C1     18.249580  -15.503800   -6.978295 C    1226 MOH     0.1166 ****
7660 HC2    19.050365  -14.803655   -6.740000 H    1226 MOH     0.0372 ****
7661 HC3    17.310231  -14.987775   -6.783134 H    1226 MOH     0.0372 ****
7662 O1     18.250158  -15.858160   -8.369881 O    1226 MOH    -0.6497 ****
7663 HO1    18.359277  -15.065750   -8.900918 H    1226 MOH     0.4215 ****
7664 HC1    12.605981  -20.647321  -17.714297 H    1227 MOH     0.0372 ****
7665 C1     12.023435  -21.520156  -17.418727 C    1227 MOH     0.1166 ****
7666 HC2    12.359453  -22.435040  -17.905923 H    1227 MOH     0.0372 ****
7667 HC3    11.003257  -21.340118  -17.756017 H    1227 MOH     0.0372 ****
7668 O1     12.016507  -21.667125  -16.015827 O    1227 MOH    -0.6497 ****
7669 HO1    11.830023  -20.805313  -15.634696 H    1227 MOH     0.4215 ****
7670 HC1    11.775174  -23.661826  -13.443372 H    1228 MOH     0.0372 ****
7671 C1     12.806899  -23.945559  -13.649140 C    1228 MOH     0.1166 ****
7672 HC2    13.077677  -24.771445  -12.992238 H    1228 MOH     0.0372 ****
7673 HC3    13.455264  -23.094769  -13.438423 H    1228 MOH     0.0372 ****
7674 O1     12.944886  -24.264809  -15.011028 O    1228 MOH    -0.6497 ****
7675 HO1    12.648128  -23.471991  -15.463576 H    1228 MOH     0.4215 ****
7676 HC1    17.269240  -24.389325  -19.129925 H    1229 MOH     0.0372 ****
7677 C1     17.283673  -23.681830  -19.959361 C    1229 MOH     0.1166 ****
7678 HC2    16.292940  -23.250720  -20.100783 H    1229 MOH     0.0372 ****
7679 HC3    17.622578  -24.174994  -20.870115 H    1229 MOH     0.0372 ****
7680 O1     18.160668  -22.630183  -19.652477 O    1229 MOH    -0.6497 ****
7681 HO1    18.356967  -22.623242  -18.712732 H    1229 MOH     0.4215 ****
7682 HC1    11.065611  -19.907167  -12.246241 H    1230 MOH     0.0372 ****
7683 C1     10.826010  -20.539951  -11.392056 C    1230 MOH     0.1166 ****
7684 HC2     9.780429  -20.415436  -11.111334 H    1230 MOH     0.0372 ****
7685 HC3    11.458209  -20.232540  -10.558377 H    1230 MOH     0.0372 ****
7686 O1     11.127965  -21.890028  -11.708132 O    1230 MOH    -0.6497 ****
7687 HO1    10.665507  -22.163147  -12.503628 H    1230 MOH     0.4215 ****
7688 HC1     8.472154  -27.845555  -21.345998 H    1231 MOH     0.0372 ****
7689 C1      9.260237  -27.811262  -22.098359 C    1231 MOH     0.1166 ****
7690 HC2     8.839926  -27.419752  -23.025376 H    1231 MOH     0.0372 ****
7691 HC3     9.658031  -28.809021  -22.285036 H    1231 MOH     0.0372 ****
7692 O1     10.266558  -26.911074  -21.748342 O    1231 MOH    -0.6497 ****
7693 HO1    11.093901  -27.376069  -21.891884 H    1231 MOH     0.4215 ****
7694 HC1    11.827136  -25.305434  -10.504637 H    1232 MOH     0.0372 ****
7695 C1     10.817350  -24.906167  -10.412713 C    1232 MOH     0.1166 ****
7696 HC2    10.204782  -25.647546   -9.899353 H    1232 MOH     0.0372 ****
7697 HC3    10.416092  -24.714290  -11.408319 H    1232 MOH     0.0372 ****
7698 O1     10.885478  -23.717348   -9.650452 O    1232 MOH    -0.6497 ****
7699 HO1    11.219763  -23.024142  -10.224622 H    1232 MOH     0.4215 ****
7700 HC1     7.570910  -18.069233  -12.080778 H    1233 MOH     0.0372 ****
7701 C1      8.433471  -17.606279  -12.560196 C    1233 MOH     0.1166 ****
7702 HC2     9.220399  -17.491561  -11.814198 H    1233 MOH     0.0372 ****
7703 HC3     8.116506  -16.614236  -12.882637 H    1233 MOH     0.0372 ****
7704 O1      8.816254  -18.393790  -13.719144 O    1233 MOH    -0.6497 ****
7705 HO1     8.122279  -18.347658  -14.380289 H    1233 MOH     0.4215 ****
7706 HC1    14.257203  -22.631816   -5.820054 H    1234 MOH     0.0372 ****
7707 C1     14.865153  -21.761022   -6.068249 C    1234 MOH     0.1166 ****
7708 HC2    15.914776  -22.030466   -6.182800 H    1234 MOH     0.0372 ****
7709 HC3    14.808573  -21.038831   -5.252955 H    1234 MOH     0.0372 ****
7710 O1     14.470245  -21.198864   -7.278108 O    1234 MOH    -0.6497 ****
7711 HO1    14.751992  -21.797356   -7.973901 H    1234 MOH     0.4215 ****
7712 HC1    19.837871  -16.381943  -16.507973 H    1235 MOH     0.0372 ****
7713 C1     18.822889  -16.765288  -16.611918 C    1235 MOH     0.1166 ****
7714 HC2    18.101779  -15.947975  -16.590705 H    1235 MOH     0.0372 ****
7715 HC3    18.587908  -17.460126  -15.805816 H    1235 MOH     0.0372 ****
7716 O1     18.695295  -17.477273  -17.794200 O    1235 MOH    -0.6497 ****
7717 HO1    19.415828  -18.110466  -17.826020 H    1235 MOH     0.4215 ****
7718 HC1    22.711920  -24.664076   -9.248108 H    1236 MOH     0.0372 ****
7719 C1     22.089537  -23.769604   -9.257300 C    1236 MOH     0.1166 ****
7720 HC2    22.533519  -22.982501   -8.647774 H    1236 MOH     0.0372 ****
7721 HC3    21.117856  -24.047621   -8.847885 H    1236 MOH     0.0372 ****
7722 O1     21.909981  -23.316856  -10.578883 O    1236 MOH    -0.6497 ****
7723 HO1    22.767346  -23.041289  -10.911930 H    1236 MOH     0.4215 ****
7724 HC1    18.695872  -19.017185  -20.728694 H    1237 MOH     0.0372 ****
7725 C1     19.288811  -19.355623  -21.577929 C    1237 MOH     0.1166 ****
7726 HC2    19.656006  -20.351341  -21.329734 H    1237 MOH     0.0372 ****
7727 HC3    20.135784  -18.685688  -21.729957 H    1237 MOH     0.0372 ****
7728 O1     18.484562  -19.406654  -22.748191 O    1237 MOH    -0.6497 ****
7729 HO1    18.891594  -20.056994  -23.325897 H    1237 MOH     0.4215 ****
7730 HC1    14.452348  -18.696302  -15.066183 H    1238 MOH     0.0372 ****
7731 C1     14.633636  -19.734478  -14.786875 C    1238 MOH     0.1166 ****
7732 HC2    13.974302  -20.371753  -15.375895 H    1238 MOH     0.0372 ****
7733 HC3    14.409046  -19.889204  -13.731165 H    1238 MOH     0.0372 ****
7734 O1     15.963851  -20.130070  -15.027999 O    1238 MOH    -0.6497 ****
7735 HO1    16.143406  -20.021884  -15.964915 H    1238 MOH     0.4215 ****
7736 HC1    18.340802  -24.484446  -11.407612 H    1239 MOH     0.0372 ****
7737 C1     18.794599  -23.605080  -10.950821 C    1239 MOH     0.1166 ****
7738 HC2    19.631757  -23.288279  -11.573075 H    1239 MOH     0.0372 ****
7739 HC3    19.098285  -23.854111   -9.934001 H    1239 MOH     0.0372 ****
7740 O1     17.844280  -22.607321  -10.986176 O    1239 MOH    -0.6497 ****
7741 HO1    17.516345  -22.551799  -11.887030 H    1239 MOH     0.4215 ****
7742 HC1    10.173605  -13.011853  -13.736822 H    1240 MOH     0.0372 ****
7743 C1      9.266010  -13.075540  -13.137195 C    1240 MOH     0.1166 ****
7744 HC2     8.655173  -13.922247  -13.449736 H    1240 MOH     0.0372 ****
7745 HC3     8.716950  -12.143509  -13.269424 H    1240 MOH     0.0372 ****
7746 O1      9.637824  -13.258843  -11.812784 O    1240 MOH    -0.6497 ****
7747 HO1    10.164944  -14.061459  -11.814198 H    1240 MOH     0.4215 ****
7748 HC1    25.703750  -21.165388   -6.030772 H    1241 MOH     0.0372 ****
7749 C1     25.450870  -20.300718   -5.417003 C    1241 MOH     0.1166 ****
7750 HC2    26.258583  -20.117414   -4.709189 H    1241 MOH     0.0372 ****
7751 HC3    24.532883  -20.533419   -4.878188 H    1241 MOH     0.0372 ****
7752 O1     25.258612  -19.192324   -6.273310 O    1241 MOH    -0.6497 ****
7753 HO1    24.573298  -19.463401   -6.888492 H    1241 MOH     0.4215 ****
7754 HC1    19.303822  -25.237664   -2.146634 H    1242 MOH     0.0372 ****
7755 C1     18.412393  -24.611003   -2.178454 C    1242 MOH     0.1166 ****
7756 HC2    17.523851  -25.241747   -2.218759 H    1242 MOH     0.0372 ****
7757 HC3    18.421631  -23.992915   -3.076480 H    1242 MOH     0.0372 ****
7758 O1     18.422785  -23.763480   -1.056983 O    1242 MOH    -0.6497 ****
7759 HO1    19.178537  -23.183359   -1.173655 H    1242 MOH     0.4215 ****
7760 HC1    20.960817  -23.975769   -3.560141 H    1243 MOH     0.0372 ****
7761 C1     21.185406  -22.909833   -3.509936 C    1243 MOH     0.1166 ****
7762 HC2    20.826294  -22.361963   -4.381092 H    1243 MOH     0.0372 ****
7763 HC3    22.271402  -22.863292   -3.582061 H    1243 MOH     0.0372 ****
7764 O1     20.824562  -22.311749   -2.243508 O    1243 MOH    -0.6497 ****
7765 HO1    20.752394  -21.362980   -2.369373 H    1243 MOH     0.4215 ****
7766 HC1    15.202903  -26.069674   -7.110524 H    1244 MOH     0.0372 ****
7767 C1     15.548158  -26.912707   -7.708029 C    1244 MOH     0.1166 ****
7768 HC2    16.288321  -27.444655   -7.109110 H    1244 MOH     0.0372 ****
7769 HC3    15.989831  -26.526913   -8.626561 H    1244 MOH     0.0372 ****
7770 O1     14.495649  -27.830449   -8.041784 O    1244 MOH    -0.6497 ****
7771 HO1    14.774509  -28.343617   -8.803338 H    1244 MOH     0.4215 ****
7772 HC1    22.360314  -17.532386  -13.333064 H    1245 MOH     0.0372 ****
7773 C1     21.867834  -17.095969  -14.202098 C    1245 MOH     0.1166 ****
7774 HC2    20.925599  -16.608520  -13.951782 H    1245 MOH     0.0372 ****
7775 HC3    21.615532  -17.930428  -14.856879 H    1245 MOH     0.0372 ****
7776 O1     22.705570  -16.170878  -14.902134 O    1245 MOH    -0.6497 ****
7777 HO1    22.164592  -15.471141  -15.274072 H    1245 MOH     0.4215 ****
7778 HC1    21.235636  -24.368504  -13.687324 H    1246 MOH     0.0372 ****
7779 C1     21.899011  -25.190308  -13.417916 C    1246 MOH     0.1166 ****
7780 HC2    22.915148  -24.804105  -13.340135 H    1246 MOH     0.0372 ****
7781 HC3    21.885155  -25.972920  -14.176642 H    1246 MOH     0.0372 ****
7782 O1     21.520847  -25.617335  -12.130982 O    1246 MOH    -0.6497 ****
7783 HO1    21.574540  -24.848196  -11.559640 H    1246 MOH     0.4215 ****
7784 HC1    25.015548  -18.169254   -9.583984 H    1247 MOH     0.0372 ****
7785 C1     24.676066  -18.915123  -10.303111 C    1247 MOH     0.1166 ****
7786 HC2    24.169730  -19.752440   -9.821571 H    1247 MOH     0.0372 ****
7787 HC3    25.562876  -19.311941  -10.798086 H    1247 MOH     0.0372 ****
7788 O1     23.834867  -18.294586  -11.257705 O    1247 MOH    -0.6497 ****
7789 HO1    24.364297  -17.609545  -11.673484 H    1247 MOH     0.4215 ****
7790 HC1    15.721941  -25.405455  -18.564947 H    1248 MOH     0.0372 ****
7791 C1     15.091474  -25.718989  -17.733389 C    1248 MOH     0.1166 ****
7792 HC2    14.115175  -26.031707  -18.103913 H    1248 MOH     0.0372 ****
7793 HC3    14.921156  -24.891878  -17.043253 H    1248 MOH     0.0372 ****
7794 O1     15.693651  -26.773086  -17.037596 O    1248 MOH    -0.6497 ****
7795 HO1    15.042977  -27.127446  -16.428070 H    1248 MOH     0.4215 ****
7796 HC1    18.384103  -20.673040  -15.421150 H    1249 MOH     0.0372 ****
7797 C1     19.040550  -20.397473  -14.595956 C    1249 MOH     0.1166 ****
7798 HC2    18.493799  -20.433399  -13.652676 H    1249 MOH     0.0372 ****
7799 HC3    19.386960  -19.374811  -14.746570 H    1249 MOH     0.0372 ****
7800 O1     20.159455  -21.269491  -14.530903 O    1249 MOH    -0.6497 ****
7801 HO1    20.764518  -20.942892  -13.860565 H    1249 MOH     0.4215 ****
7802 HC1    22.160551  -15.958181   -7.653582 H    1250 MOH     0.0372 ****
7803 C1     21.848782  -16.377044   -6.696159 C    1250 MOH     0.1166 ****
7804 HC2    21.321661  -15.630766   -6.103604 H    1250 MOH     0.0372 ****
7805 HC3    22.741365  -16.710582   -6.167951 H    1250 MOH     0.0372 ****
7806 O1     21.034141  -17.491153   -6.923141 O    1250 MOH    -0.6497 ****
7807 HO1    20.348248  -17.249878   -7.548930 H    1250 MOH     0.4215 ****
7808 HC1    14.840327  -10.563996  -15.373067 H    1251 MOH     0.0372 ****
7809 C1     13.932732  -10.184325  -15.842586 C    1251 MOH     0.1166 ****
7810 HC2    14.063213  -10.204329  -16.925166 H    1251 MOH     0.0372 ****
7811 HC3    13.789549   -9.153498  -15.520852 H    1251 MOH     0.0372 ****
7812 O1     12.792466  -10.977552  -15.468526 O    1251 MOH    -0.6497 ****
7813 HO1    12.019394  -10.472549  -15.730863 H    1251 MOH     0.4215 ****
7814 HC1    16.997885  -19.033923   -8.861320 H    1252 MOH     0.0372 ****
7815 C1     17.579854  -18.791424   -9.750861 C    1252 MOH     0.1166 ****
7816 HC2    17.543481  -19.613228  -10.465746 H    1252 MOH     0.0372 ****
7817 HC3    18.606960  -18.648129   -9.413571 H    1252 MOH     0.0372 ****
7818 O1     17.113932  -17.547083  -10.282605 O    1252 MOH    -0.6497 ****
7819 HO1    17.529624  -16.869799   -9.744497 H    1252 MOH     0.4215 ****
7820 HC1    14.492185  -23.600181  -11.189823 H    1253 MOH     0.0372 ****
7821 C1     14.654997  -23.824309  -10.135527 C    1253 MOH     0.1166 ****
7822 HC2    15.222533  -24.751032  -10.043603 H    1253 MOH     0.0372 ****
7823 HC3    13.671193  -23.941884   -9.681564 H    1253 MOH     0.0372 ****
7824 O1     15.347818  -22.747758   -9.543679 O    1253 MOH    -0.6497 ****
7825 HO1    16.186130  -22.657127  -10.001884 H    1253 MOH     0.4215 ****
7826 HC1    14.214479  -23.705100  -20.525754 H    1254 MOH     0.0372 ****
7827 C1     14.081111  -24.727762  -20.878600 C    1254 MOH     0.1166 ****
7828 HC2    13.082295  -24.805330  -21.307107 H    1254 MOH     0.0372 ****
7829 HC3    14.154435  -25.444646  -20.061185 H    1254 MOH     0.0372 ****
7830 O1     15.001408  -25.004963  -21.890470 O    1254 MOH    -0.6497 ****
7831 HO1    15.117455  -25.952916  -21.982394 H    1254 MOH     0.4215 ****
7832 HC1    17.350069  -16.424400  -21.215890 H    1255 MOH     0.0372 ****
7833 C1     16.502518  -17.089029  -21.046185 C    1255 MOH     0.1166 ****
7834 HC2    15.637070  -16.445221  -20.889914 H    1255 MOH     0.0372 ****
7835 HC3    16.735191  -17.690787  -20.167958 H    1255 MOH     0.0372 ****
7836 O1     16.369151  -17.790807  -22.261701 O    1255 MOH    -0.6497 ****
7837 HO1    17.214969  -18.196606  -22.466762 H    1255 MOH     0.4215 ****
7838 HC1    18.767463  -21.042097   -6.634641 H    1256 MOH     0.0372 ****
7839 C1     18.830972  -21.965146   -7.210933 C    1256 MOH     0.1166 ****
7840 HC2    19.862697  -22.169270   -7.496604 H    1256 MOH     0.0372 ****
7841 HC3    18.213784  -21.853286   -8.101888 H    1256 MOH     0.0372 ****
7842 O1     18.313089  -23.018427   -6.445844 O    1256 MOH    -0.6497 ****
7843 HO1    18.563081  -23.843088   -6.870108 H    1256 MOH     0.4215 ****
7844 HC1     6.716431  -21.734486  -15.117094 H    1257 MOH     0.0372 ****
7845 C1      6.550154  -20.664059  -14.998300 C    1257 MOH     0.1166 ****
7846 HC2     6.903493  -20.343176  -14.018250 H    1257 MOH     0.0372 ****
7847 HC3     5.483211  -20.450953  -15.070425 H    1257 MOH     0.0372 ****
7848 O1      7.237201  -19.949624  -16.008049 O    1257 MOH    -0.6497 ****
7849 HO1     7.146557  -20.479531  -16.802837 H    1257 MOH     0.4215 ****
7850 HC1    13.379631  -15.418477  -17.966027 H    1258 MOH     0.0372 ****
7851 C1     14.250852  -16.073715  -17.985119 C    1258 MOH     0.1166 ****
7852 HC2    14.250275  -16.645263  -18.912843 H    1258 MOH     0.0372 ****
7853 HC3    14.223140  -16.782842  -17.157097 H    1258 MOH     0.0372 ****
7854 O1     15.429224  -15.289062  -17.911580 O    1258 MOH    -0.6497 ****
7855 HO1    15.399779  -14.778343  -17.099115 H    1258 MOH     0.4215 ****
7856 HC1     9.194419  -22.183559  -15.440949 H    1259 MOH     0.0372 ****
7857 C1      9.461732  -23.188258  -15.112144 C    1259 MOH     0.1166 ****
7858 HC2    10.406277  -23.477706  -15.572471 H    1259 MOH     0.0372 ****
7859 HC3     8.699052  -23.901876  -15.421857 H    1259 MOH     0.0372 ****
7860 O1      9.629163  -23.180501  -13.683082 O    1259 MOH    -0.6497 ****
7861 HO1     8.800666  -22.992707  -13.236190 H    1259 MOH     0.4215 ****
7862 HC1    26.329020  -22.368087   -8.078553 H    1260 MOH     0.0372 ****
7863 C1     27.187540  -22.006379   -8.644239 C    1260 MOH     0.1166 ****
7864 HC2    26.839398  -21.487087   -9.536607 H    1260 MOH     0.0372 ****
7865 HC3    27.816852  -22.846962   -8.937688 H    1260 MOH     0.0372 ****
7866 O1     27.936940  -21.116806   -7.848743 O    1260 MOH    -0.6497 ****
7867 HO1    28.104372  -21.535261   -7.000922 H    1260 MOH     0.4215 ****
7868 HC1    12.075974  -16.105967  -13.364177 H    1261 MOH     0.0372 ****
7869 C1     11.705315  -16.502784  -12.419482 C    1261 MOH     0.1166 ****
7870 HC2    12.559793  -16.625667  -11.754094 H    1261 MOH     0.0372 ****
7871 HC3    11.233620  -17.478497  -12.535447 H    1261 MOH     0.0372 ****
7872 O1     10.850259  -15.567487  -11.857332 O    1261 MOH    -0.6497 ****
7873 HO1    11.035011  -15.565854  -10.915466 H    1261 MOH     0.4215 ****
7874 HC1    11.364101  -20.780818   -7.626005 H    1262 MOH     0.0372 ****
7875 C1     11.297706  -21.041280   -6.569587 C    1262 MOH     0.1166 ****
7876 HC2    11.405670  -22.119464   -6.445844 H    1262 MOH     0.0372 ****
7877 HC3    10.313901  -20.726521   -6.220984 H    1262 MOH     0.0372 ****
7878 O1     12.281510  -20.322355   -5.846217 O    1262 MOH    -0.6497 ****
7879 HO1    13.104235  -20.431357   -6.329171 H    1262 MOH     0.4215 ****
7880 HC1    18.910646  -18.219876   -2.777374 H    1263 MOH     0.0372 ****
7881 C1     19.348278  -19.123330   -3.202345 C    1263 MOH     0.1166 ****
7882 HC2    19.591920  -18.928187   -4.246034 H    1263 MOH     0.0372 ****
7883 HC3    18.642756  -19.949624   -3.109007 H    1263 MOH     0.0372 ****
7884 O1     20.484503  -19.420943   -2.454933 O    1263 MOH    -0.6497 ****
7885 HO1    21.112083  -18.695077   -2.503016 H    1263 MOH     0.4215 ****
7886 HC1    15.690764  -25.417702   -3.410234 H    1264 MOH     0.0372 ****
7887 C1     15.280268  -26.374228   -3.087086 C    1264 MOH     0.1166 ****
7888 HC2    16.059113  -27.136835   -3.065873 H    1264 MOH     0.0372 ****
7889 HC3    14.495071  -26.653061   -3.789244 H    1264 MOH     0.0372 ****
7890 O1     14.684442  -26.229708   -1.831265 O    1264 MOH    -0.6497 ****
7891 HO1    15.305094  -25.780635   -1.252851 H    1264 MOH     0.4215 ****
7892 HC1    12.073664  -14.692203  -16.439384 H    1265 MOH     0.0372 ****
7893 C1     12.640045  -14.387241  -15.559036 C    1265 MOH     0.1166 ****
7894 HC2    13.025715  -15.280897  -15.067597 H    1265 MOH     0.0372 ****
7895 HC3    11.985907  -13.863459  -14.862536 H    1265 MOH     0.0372 ****
7896 O1     13.734701  -13.572786  -15.964208 O    1265 MOH    -0.6497 ****
7897 HO1    13.383672  -12.697502  -16.140985 H    1265 MOH     0.4215 ****
7898 HC1     3.990183  -24.097019  -17.042546 H    1266 MOH     0.0372 ****
7899 C1      4.549058  -23.464642  -16.353117 C    1266 MOH     0.1166 ****
7900 HC2     4.594092  -22.464026  -16.783745 H    1266 MOH     0.0372 ****
7901 HC3     5.562308  -23.859010  -16.272507 H    1266 MOH     0.0372 ****
7902 O1      3.883951  -23.452395  -15.064768 O    1266 MOH    -0.6497 ****
7903 HO1     4.351027  -24.070483  -14.499083 H    1266 MOH     0.4215 ****
7904 HC1    14.195427  -28.447313  -14.076940 H    1267 MOH     0.0372 ****
7905 C1     13.883658  -27.403830  -14.112295 C    1267 MOH     0.1166 ****
7906 HC2    14.689638  -26.746550  -13.784198 H    1267 MOH     0.0372 ****
7907 HC3    13.040726  -27.280539  -13.433473 H    1267 MOH     0.0372 ****
7908 O1     13.430438  -27.057635  -15.406301 O    1267 MOH    -0.6497 ****
7909 HO1    13.219127  -26.121930  -15.376602 H    1267 MOH     0.4215 ****
7910 HC1    20.891535  -20.433807   -6.579487 H    1268 MOH     0.0372 ****
7911 C1     21.817027  -20.134153   -6.085926 C    1268 MOH     0.1166 ****
7912 HC2    22.261010  -20.988208   -5.573981 H    1268 MOH     0.0372 ****
7913 HC3    21.571076  -19.382159   -5.336393 H    1268 MOH     0.0372 ****
7914 O1     22.699219  -19.634865   -7.111938 O    1268 MOH    -0.6497 ****
7915 HO1    22.508693  -18.696710   -7.186892 H    1268 MOH     0.4215 ****
7916 HC1     9.791399  -28.665725   -7.377103 H    1269 MOH     0.0372 ****
7917 C1     10.274641  -28.816369   -8.342304 C    1269 MOH     0.1166 ****
7918 HC2    10.730170  -29.805963   -8.362103 H    1269 MOH     0.0372 ****
7919 HC3    11.035011  -28.047229   -8.480897 H    1269 MOH     0.0372 ****
7920 O1      9.243493  -28.766971   -9.328718 O    1269 MOH    -0.6497 ****
7921 HO1     8.730806  -27.965988   -9.198610 H    1269 MOH     0.4215 ****
7922 HC1     5.491294  -27.238081  -13.710659 H    1270 MOH     0.0372 ****
7923 C1      6.079037  -26.322380  -13.649141 C    1270 MOH     0.1166 ****
7924 HC2     6.544958  -26.111724  -14.612220 H    1270 MOH     0.0372 ****
7925 HC3     6.867697  -26.470983  -12.912335 H    1270 MOH     0.0372 ****
7926 O1      5.297304  -25.197656  -13.273667 O    1270 MOH    -0.6497 ****
7927 HO1     4.897201  -25.361772  -12.416653 H    1270 MOH     0.4215 ****
7928 HC1    19.308441  -16.564838  -11.231542 H    1271 MOH     0.0372 ****
7929 C1     20.254140  -16.221909  -10.811521 C    1271 MOH     0.1166 ****
7930 HC2    20.140402  -15.247421  -10.335638 H    1271 MOH     0.0372 ****
7931 HC3    20.983911  -16.108416  -11.613380 H    1271 MOH     0.0372 ****
7932 O1     20.695813  -17.144142   -9.839249 O    1271 MOH    -0.6497 ****
7933 HO1    21.527198  -17.532386  -10.121385 H    1271 MOH     0.4215 ****
7934 HC1    19.226457  -24.630599  -16.160784 H    1272 MOH     0.0372 ****
7935 C1     20.008189  -23.957398  -16.512216 C    1272 MOH     0.1166 ****
7936 HC2    20.567642  -24.392182  -17.340238 H    1272 MOH     0.0372 ****
7937 HC3    20.693504  -23.752457  -15.690558 H    1272 MOH     0.0372 ****
7938 O1     19.434303  -22.757964  -16.957693 O    1272 MOH    -0.6497 ****
7939 HO1    19.629447  -22.114565  -16.271799 H    1272 MOH     0.4215 ****
7940 HC1    24.126313   -1.889700  -15.889255 H    1273 MOH     0.0372 ****
7941 C1     23.089969   -1.750895  -15.582370 C    1273 MOH     0.1166 ****
7942 HC2    22.526476   -1.386738  -16.440798 H    1273 MOH     0.0372 ****
7943 HC3    23.020110   -1.000943  -14.793946 H    1273 MOH     0.0372 ****
7944 O1     22.564581   -2.993603  -15.165177 O    1273 MOH    -0.6497 ****
7945 HO1    21.801901   -2.841327  -14.603028 H    1273 MOH     0.4215 ****
7946 HC1    18.624742  -12.430671  -11.797935 H    1274 MOH     0.0372 ****
7947 C1     17.823958  -12.824630  -11.172145 C    1274 MOH     0.1166 ****
7948 HC2    17.258154  -13.554986  -11.751266 H    1274 MOH     0.0372 ****
7949 HC3    17.151345  -12.047734  -10.810814 H    1274 MOH     0.0372 ****
7950 O1     18.321056  -13.565601  -10.127749 O    1274 MOH    -0.6497 ****
7951 HO1    18.865497  -12.969558   -9.608732 H    1274 MOH     0.4215 ****
7952 HC1    25.175936   -3.341022  -11.220229 H    1275 MOH     0.0372 ****
7953 C1     25.779844   -2.789479  -10.499687 C    1275 MOH     0.1166 ****
7954 HC2    26.591599   -3.424713  -10.146134 H    1275 MOH     0.0372 ****
7955 HC3    25.131480   -2.503705   -9.670958 H    1275 MOH     0.0372 ****
7956 O1     26.284448   -1.665571  -11.155175 O    1275 MOH    -0.6497 ****
7957 HO1    27.097358   -1.403884  -10.716062 H    1275 MOH     0.4215 ****
7958 HC1    23.237771   -8.662539   -6.835460 H    1276 MOH     0.0372 ****
7959 C1     22.217593   -8.955253   -6.587265 C    1276 MOH     0.1166 ****
7960 HC2    22.056512   -8.897690   -5.511756 H    1276 MOH     0.0372 ****
7961 HC3    22.009170   -9.977507   -6.904049 H    1276 MOH     0.0372 ****
7962 O1     21.331360   -8.062822   -7.188306 O    1276 MOH    -0.6497 ****
7963 HO1    21.782848   -7.686417   -7.947739 H    1276 MOH     0.4215 ****
7964 HC1    27.035004   -4.714370  -21.732078 H    1277 MOH     0.0372 ****
7965 C1     27.080615   -5.169158  -22.722028 C    1277 MOH     0.1166 ****
7966 HC2    27.998024   -5.748054  -22.830922 H    1277 MOH     0.0372 ****
7967 HC3    27.070222   -4.391445  -23.484996 H    1277 MOH     0.0372 ****
7968 O1     25.977298   -6.005659  -22.939109 O    1277 MOH    -0.6497 ****
7969 HO1    26.236528   -6.893191  -22.681723 H    1277 MOH     0.4215 ****
7970 HC1    17.836659   -5.875836  -10.631209 H    1278 MOH     0.0372 ****
7971 C1     18.877045   -5.848483  -10.957185 C    1278 MOH     0.1166 ****
7972 HC2    19.461323   -6.488208  -10.294626 H    1278 MOH     0.0372 ****
7973 HC3    19.218259   -4.814799  -10.903445 H    1278 MOH     0.0372 ****
7974 O1     18.944017   -6.330625  -12.280182 O    1278 MOH    -0.6497 ****
7975 HO1    18.349346   -7.083435  -12.324022 H    1278 MOH     0.4215 ****
7976 HC1    20.717060  -10.558036  -14.791118 H    1279 MOH     0.0372 ****
7977 C1     21.631583  -10.251850  -15.298821 C    1279 MOH     0.1166 ****
7978 HC2    22.226831   -9.597428  -14.661717 H    1279 MOH     0.0372 ****
7979 HC3    21.356187   -9.705613  -16.201089 H    1279 MOH     0.0372 ****
7980 O1     22.333641  -11.391271  -15.696922 O    1279 MOH    -0.6497 ****
7981 HO1    23.268371  -11.192454  -15.607119 H    1279 MOH     0.4215 ****
7982 HC1    17.662877  -10.895657  -19.646820 H    1280 MOH     0.0372 ****
7983 C1     17.705601  -10.653974  -18.584746 C    1280 MOH     0.1166 ****
7984 HC2    18.742522  -10.716028  -18.253820 H    1280 MOH     0.0372 ****
7985 HC3    17.108043  -11.355753  -18.002797 H    1280 MOH     0.0372 ****
7986 O1     17.272011   -9.360235  -18.315338 O    1280 MOH    -0.6497 ****
7987 HO1    16.502403   -9.168767  -18.856275 H    1280 MOH     0.4215 ****
7988 HC1    15.059605   -6.958102  -11.931578 H    1281 MOH     0.0372 ****
7989 C1     14.624860   -7.843593  -11.468423 C    1281 MOH     0.1166 ****
7990 HC2    14.212632   -8.518427  -12.218664 H    1281 MOH     0.0372 ****
7991 HC3    13.802713   -7.557411  -10.811521 H    1281 MOH     0.0372 ****
7992 O1     15.530145   -8.546188  -10.672928 O    1281 MOH    -0.6497 ****
7993 HO1    15.003602   -9.263889  -10.312304 H    1281 MOH     0.4215 ****
7994 HC1    28.648698   -1.399802  -14.162500 H    1282 MOH     0.0372 ****
7995 C1     27.983013   -0.540847  -14.077647 C    1282 MOH     0.1166 ****
7996 HC2    26.940896   -0.860914  -14.084718 H    1282 MOH     0.0372 ****
7997 HC3    28.118113    0.083772  -14.960116 H    1282 MOH     0.0372 ****
7998 O1     28.208757    0.256053  -12.874151 O    1282 MOH    -0.6497 ****
7999 HO1    28.136011   -0.311004  -12.104112 H    1282 MOH     0.4215 ****
8000 HC1    28.723176  -12.053857   -5.212649 H    1283 MOH     0.0372 ****
8001 C1     29.022821  -13.101014   -5.227499 C    1283 MOH     0.1166 ****
8002 HC2    29.656751  -13.289625   -6.094412 H    1283 MOH     0.0372 ****
8003 HC3    28.155063  -13.755028   -5.306695 H    1283 MOH     0.0372 ****
8004 O1     29.727765  -13.412099   -4.033902 O    1283 MOH    -0.6497 ****
8005 HO1    30.161933  -14.260439   -4.152696 H    1283 MOH     0.4215 ****
8006 HC1    20.972249   -8.786238  -19.260033 H    1284 MOH     0.0372 ****
8007 C1     20.431849   -7.916669  -19.633385 C    1284 MOH     0.1166 ****
8008 HC2    19.988444   -8.246126  -20.573130 H    1284 MOH     0.0372 ****
8009 HC3    21.154691   -7.113645  -19.779756 H    1284 MOH     0.0372 ****
8010 O1     19.440538   -7.578231  -18.639900 O    1284 MOH    -0.6497 ****
8011 HO1    18.804876   -8.292258  -18.557169 H    1284 MOH     0.4215 ****
8012 HC1    19.415712  -15.558261  -23.569142 H    1285 MOH     0.0372 ****
8013 C1     19.828518  -14.550704  -23.605911 C    1285 MOH     0.1166 ****
8014 HC2    19.743070  -14.079994  -22.626568 H    1285 MOH     0.0372 ****
8015 HC3    19.251745  -13.962827  -24.320089 H    1285 MOH     0.0372 ****
8016 O1     21.167970  -14.606226  -24.037246 O    1285 MOH    -0.6497 ****
8017 HO1    21.201457  -15.266772  -24.733039 H    1285 MOH     0.4215 ****
8018 HC1    25.589319    2.854145  -11.428825 H    1286 MOH     0.0372 ****
8019 C1     25.134944    3.152167  -12.373520 C    1286 MOH     0.1166 ****
8020 HC2    24.054144    3.017445  -12.325437 H    1286 MOH     0.0372 ****
8021 HC3    25.557564    2.527547  -13.161237 H    1286 MOH     0.0372 ****
8022 O1     25.416691    4.509592  -12.633028 O    1286 MOH    -0.6497 ****
8023 HO1    25.147068    4.703918  -13.533882 H    1286 MOH     0.4215 ****
8024 HC1    26.630281    5.767813   -8.305535 H    1287 MOH     0.0372 ****
8025 C1     26.288490    5.098286   -9.094666 C    1287 MOH     0.1166 ****
8026 HC2    25.790237    4.222185   -8.678887 H    1287 MOH     0.0372 ****
8027 HC3    27.160866    4.780261   -9.665301 H    1287 MOH     0.0372 ****
8028 O1     25.507335    5.828234  -10.016733 O    1287 MOH    -0.6497 ****
8029 HO1    25.534470    5.341194  -10.843341 H    1287 MOH     0.4215 ****
8030 HC1    29.396944  -10.938115  -12.636564 H    1288 MOH     0.0372 ****
8031 C1     29.256648  -11.092433  -13.705709 C    1288 MOH     0.1166 ****
8032 HC2    29.060349  -10.137948  -14.195027 H    1288 MOH     0.0372 ****
8033 HC3    28.422377  -11.771350  -13.881779 H    1288 MOH     0.0372 ****
8034 O1     30.432133  -11.646834  -14.257252 O    1288 MOH    -0.6497 ****
8035 HO1    31.078765  -11.747671  -13.555095 H    1288 MOH     0.4215 ****
8036 HC1    26.853139  -11.144280  -20.005323 H    1289 MOH     0.0372 ****
8037 C1     26.692058  -12.157144  -19.636921 C    1289 MOH     0.1166 ****
8038 HC2    25.940925  -12.112237  -18.849204 H    1289 MOH     0.0372 ****
8039 HC3    27.616973  -12.557636  -19.221849 H    1289 MOH     0.0372 ****
8040 O1     26.240570  -13.003851  -20.693338 O    1289 MOH    -0.6497 ****
8041 HO1    26.645292  -13.861989  -20.543432 H    1289 MOH     0.4215 ****
8042 HC1    30.654413    1.899661  -20.218162 H    1290 MOH     0.0372 ****
8043 C1     30.073598    2.280965  -19.378120 C    1290 MOH     0.1166 ****
8044 HC2    30.370934    3.288113  -19.086085 H    1290 MOH     0.0372 ****
8045 HC3    30.281444    1.625726  -18.531713 H    1290 MOH     0.0372 ****
8046 O1     28.694309    2.237282  -19.663084 O    1290 MOH    -0.6497 ****
8047 HO1    28.289009    1.562448  -19.113662 H    1290 MOH     0.4215 ****
8048 HC1    19.232115   -8.457190   -9.192246 H    1291 MOH     0.0372 ****
8049 C1     18.840671   -9.226330   -9.856927 C    1291 MOH     0.1166 ****
8050 HC2    19.340079   -9.192445  -10.824956 H    1291 MOH     0.0372 ****
8051 HC3    17.769109   -9.063847   -9.981378 H    1291 MOH     0.0372 ****
8052 O1     18.981545  -10.493124   -9.272150 O    1291 MOH    -0.6497 ****
8053 HO1    18.535253  -10.493532   -8.422914 H    1291 MOH     0.4215 ****
8054 HC1    29.586892   -7.098131  -14.441100 H    1292 MOH     0.0372 ****
8055 C1     28.523413   -6.897273  -14.572622 C    1292 MOH     0.1166 ****
8056 HC2    27.941444   -7.818281  -14.545752 H    1292 MOH     0.0372 ****
8057 HC3    28.358291   -6.426563  -15.542065 H    1292 MOH     0.0372 ****
8058 O1     28.073080   -6.006884  -13.593279 O    1292 MOH    -0.6497 ****
8059 HO1    28.183354   -5.112412  -13.923498 H    1292 MOH     0.4215 ****
8060 HC1    29.067277  -15.426397  -12.034109 H    1293 MOH     0.0372 ****
8061 C1     28.881370  -14.840560  -12.934255 C    1293 MOH     0.1166 ****
8062 HC2    28.899268  -15.464364  -13.828038 H    1293 MOH     0.0372 ****
8063 HC3    29.629039  -14.055091  -13.043150 H    1293 MOH     0.0372 ****
8064 O1     27.638912  -14.252275  -12.804855 O    1293 MOH    -0.6497 ****
8065 HO1    27.340422  -14.141639  -13.710659 H    1293 MOH     0.4215 ****
8066 HC1    28.497432   -3.498606  -19.701267 H    1294 MOH     0.0372 ****
8067 C1     28.260141   -3.785197  -18.675963 C    1294 MOH     0.1166 ****
8068 HC2    29.022244   -4.447784  -18.266548 H    1294 MOH     0.0372 ****
8069 HC3    27.306936   -4.313878  -18.695054 H    1294 MOH     0.0372 ****
8070 O1     28.158527   -2.658840  -17.838041 O    1294 MOH    -0.6497 ****
8071 HO1    28.932177   -2.102397  -17.957542 H    1294 MOH     0.4215 ****
8072 HC1    26.188608  -18.480910  -13.349327 H    1295 MOH     0.0372 ****
8073 C1     25.781576  -17.480294  -13.494284 C    1295 MOH     0.1166 ****
8074 HC2    24.735995  -17.526018  -13.799754 H    1295 MOH     0.0372 ****
8075 HC3    26.338142  -17.022647  -14.310992 H    1295 MOH     0.0372 ****
8076 O1     25.936306  -16.656449  -12.337457 O    1295 MOH    -0.6497 ****
8077 HO1    26.219208  -15.776265  -12.597673 H    1295 MOH     0.4215 ****
8078 HC1    25.594515  -14.075503  -11.126891 H    1296 MOH     0.0372 ****
8079 C1     25.682849  -13.089583  -10.670807 C    1296 MOH     0.1166 ****
8080 HC2    25.081828  -13.057740   -9.762882 H    1296 MOH     0.0372 ****
8081 HC3    25.330666  -12.354328  -11.394177 H    1296 MOH     0.0372 ****
8082 O1     27.022879  -12.885867  -10.363215 O    1296 MOH    -0.6497 ****
8083 HO1    27.507854  -13.352495  -11.046987 H    1296 MOH     0.4215 ****
8084 HC1    29.890578    0.024577   -6.328464 H    1297 MOH     0.0372 ****
8085 C1     29.847854    0.898636   -6.978295 C    1297 MOH     0.1166 ****
8086 HC2    30.648639    1.598782   -6.740000 H    1297 MOH     0.0372 ****
8087 HC3    28.908505    1.414662   -6.783134 H    1297 MOH     0.0372 ****
8088 O1     29.848432    0.544277   -8.369881 O    1297 MOH    -0.6497 ****
8089 HO1    29.957551    1.336686   -8.900918 H    1297 MOH     0.4215 ****
8090 HC1    27.558083  -18.912837  -10.313011 H    1298 MOH     0.0372 ****
8091 C1     28.634264  -18.904672  -10.482716 C    1298 MOH     0.1166 ****
8092 HC2    29.054575  -18.044493   -9.962993 H    1298 MOH     0.0372 ****
8093 HC3    28.838069  -18.844251  -11.551862 H    1298 MOH     0.0372 ****
8094 O1     29.227780  -20.049400   -9.982085 O    1298 MOH    -0.6497 ****
8095 HO1    28.765900  -20.310679   -9.183054 H    1298 MOH     0.4215 ****
8096 HC1    24.204256   -4.244884  -17.714297 H    1299 MOH     0.0372 ****
8097 C1     23.621709   -5.117719  -17.418727 C    1299 MOH     0.1166 ****
8098 HC2    23.957727   -6.032603  -17.905923 H    1299 MOH     0.0372 ****
8099 HC3    22.601531   -4.937682  -17.756017 H    1299 MOH     0.0372 ****
8100 O1     23.614781   -5.264688  -16.015827 O    1299 MOH    -0.6497 ****
8101 HO1    23.428297   -4.402876  -15.634696 H    1299 MOH     0.4215 ****
8102 HC1    23.373448   -7.259390  -13.443372 H    1300 MOH     0.0372 ****
8103 C1     24.405173   -7.543122  -13.649140 C    1300 MOH     0.1166 ****
8104 HC2    24.675951   -8.369008  -12.992238 H    1300 MOH     0.0372 ****
8105 HC3    25.053538   -6.692333  -13.438423 H    1300 MOH     0.0372 ****
8106 O1     24.543160   -7.862372  -15.011028 O    1300 MOH    -0.6497 ****
8107 HO1    24.246402   -7.069554  -15.463576 H    1300 MOH     0.4215 ****
8108 HC1    28.867514   -7.986888  -19.129925 H    1301 MOH     0.0372 ****
8109 C1     28.881947   -7.279394  -19.959361 C    1301 MOH     0.1166 ****
8110 HC2    27.891214   -6.848284  -20.100783 H    1301 MOH     0.0372 ****
8111 HC3    29.220852   -7.772558  -20.870115 H    1301 MOH     0.0372 ****
8112 O1     29.758942   -6.227746  -19.652477 O    1301 MOH    -0.6497 ****
8113 HO1    29.955242   -6.220806  -18.712732 H    1301 MOH     0.4215 ****
8114 HC1    24.723871  -15.734216   -5.251540 H    1302 MOH     0.0372 ****
8115 C1     25.716336  -15.713395   -5.701967 C    1302 MOH     0.1166 ****
8116 HC2    26.239415  -14.802185   -5.412054 H    1302 MOH     0.0372 ****
8117 HC3    25.656291  -15.768917   -6.788083 H    1302 MOH     0.0372 ****
8118 O1     26.451303  -16.778107   -5.253662 O    1302 MOH    -0.6497 ****
8119 HO1    26.004434  -17.574191   -5.549232 H    1302 MOH     0.4215 ****
8120 HC1    22.663885   -3.504730  -12.246241 H    1303 MOH     0.0372 ****
8121 C1     22.424285   -4.137515  -11.392056 C    1303 MOH     0.1166 ****
8122 HC2    21.378703   -4.012999  -11.111334 H    1303 MOH     0.0372 ****
8123 HC3    23.056483   -3.830104  -10.558377 H    1303 MOH     0.0372 ****
8124 O1     22.726239   -5.487592  -11.708132 O    1303 MOH    -0.6497 ****
8125 HO1    22.263781   -5.760710  -12.503628 H    1303 MOH     0.4215 ****
8126 HC1    20.070428  -11.443118  -21.345998 H    1304 MOH     0.0372 ****
8127 C1     20.858511  -11.408825  -22.098359 C    1304 MOH     0.1166 ****
8128 HC2    20.438200  -11.017315  -23.025376 H    1304 MOH     0.0372 ****
8129 HC3    21.256305  -12.406584  -22.285036 H    1304 MOH     0.0372 ****
8130 O1     21.864832  -10.508638  -21.748342 O    1304 MOH    -0.6497 ****
8131 HO1    22.692175  -10.973633  -21.891884 H    1304 MOH     0.4215 ****
8132 HC1    23.274144  -12.063655  -24.064116 H    1305 MOH     0.0372 ****
8133 C1     23.704270  -12.633570  -23.239630 C    1305 MOH     0.1166 ****
8134 HC2    24.479652  -13.277378  -23.654701 H    1305 MOH     0.0372 ****
8135 HC3    22.958911  -13.282277  -22.779303 H    1305 MOH     0.0372 ****
8136 O1     24.273538  -11.739098  -22.299885 O    1305 MOH    -0.6497 ****
8137 HO1    24.688075  -12.278394  -21.623184 H    1305 MOH     0.4215 ****
8138 HC1    23.425410   -8.902997  -10.504637 H    1306 MOH     0.0372 ****
8139 C1     22.415624   -8.503730  -10.412713 C    1306 MOH     0.1166 ****
8140 HC2    21.803056   -9.245109   -9.899353 H    1306 MOH     0.0372 ****
8141 HC3    22.014366   -8.311854  -11.408319 H    1306 MOH     0.0372 ****
8142 O1     22.483752   -7.314911   -9.650452 O    1306 MOH    -0.6497 ****
8143 HO1    22.818037   -6.621706  -10.224622 H    1306 MOH     0.4215 ****
8144 HC1    19.169184   -1.666796  -12.080778 H    1307 MOH     0.0372 ****
8145 C1     20.031745   -1.203843  -12.560196 C    1307 MOH     0.1166 ****
8146 HC2    20.818673   -1.089125  -11.814198 H    1307 MOH     0.0372 ****
8147 HC3    19.714780   -0.211799  -12.882637 H    1307 MOH     0.0372 ****
8148 O1     20.414528   -1.991354  -13.719144 O    1307 MOH    -0.6497 ****
8149 HO1    19.720553   -1.945222  -14.380289 H    1307 MOH     0.4215 ****
8150 HC1    25.855477   -6.229379   -5.820054 H    1308 MOH     0.0372 ****
8151 C1     26.463427   -5.358585   -6.068249 C    1308 MOH     0.1166 ****
8152 HC2    27.513050   -5.628029   -6.182800 H    1308 MOH     0.0372 ****
8153 HC3    26.406847   -4.636394   -5.252955 H    1308 MOH     0.0372 ****
8154 O1     26.068519   -4.796428   -7.278108 O    1308 MOH    -0.6497 ****
8155 HO1    26.350266   -5.394920   -7.973901 H    1308 MOH     0.4215 ****
8156 HC1    31.436145    0.020494  -16.507973 H    1309 MOH     0.0372 ****
8157 C1     30.421163   -0.362851  -16.611918 C    1309 MOH     0.1166 ****
8158 HC2    29.700053    0.454462  -16.590705 H    1309 MOH     0.0372 ****
8159 HC3    30.186182   -1.057690  -15.805816 H    1309 MOH     0.0372 ****
8160 O1     30.293569   -1.074836  -17.794200 O    1309 MOH    -0.6497 ****
8161 HO1    31.014102   -1.708029  -17.826020 H    1309 MOH     0.4215 ****
8162 HC1    24.914974  -13.973441  -15.618433 H    1310 MOH     0.0372 ****
8163 C1     25.771761  -14.231454  -16.242101 C    1310 MOH     0.1166 ****
8164 HC2    25.957668  -13.438227  -16.965471 H    1310 MOH     0.0372 ****
8165 HC3    25.525810  -15.135316  -16.799301 H    1310 MOH     0.0372 ****
8166 O1     26.935122  -14.422106  -15.440949 O    1310 MOH    -0.6497 ****
8167 HO1    27.631407  -14.769933  -16.002392 H    1310 MOH     0.4215 ****
8168 HC1    30.294146   -2.614749  -20.728694 H    1311 MOH     0.0372 ****
8169 C1     30.887085   -2.953187  -21.577929 C    1311 MOH     0.1166 ****
8170 HC2    31.254280   -3.948904  -21.329734 H    1311 MOH     0.0372 ****
8171 HC3    31.734058   -2.283251  -21.729957 H    1311 MOH     0.0372 ****
8172 O1     30.082836   -3.004218  -22.748191 O    1311 MOH    -0.6497 ****
8173 HO1    30.489868   -3.654557  -23.325897 H    1311 MOH     0.4215 ****
8174 HC1    26.050622   -2.293866  -15.066183 H    1312 MOH     0.0372 ****
8175 C1     26.231910   -3.332041  -14.786875 C    1312 MOH     0.1166 ****
8176 HC2    25.572576   -3.969317  -15.375895 H    1312 MOH     0.0372 ****
8177 HC3    26.007320   -3.486767  -13.731165 H    1312 MOH     0.0372 ****
8178 O1     27.562125   -3.727634  -15.027999 O    1312 MOH    -0.6497 ****
8179 HO1    27.741681   -3.619448  -15.964915 H    1312 MOH     0.4215 ****
8180 HC1    29.939076   -8.082010  -11.407612 H    1313 MOH     0.0372 ****
8181 C1     30.392873   -7.202643  -10.950821 C    1313 MOH     0.1166 ****
8182 HC2    31.230031   -6.885842  -11.573075 H    1313 MOH     0.0372 ****
8183 HC3    30.696559   -7.451674   -9.934001 H    1313 MOH     0.0372 ****
8184 O1     29.442554   -6.204884  -10.986176 O    1313 MOH    -0.6497 ****
8185 HO1    29.114619   -6.149362  -11.887030 H    1313 MOH     0.4215 ****
8186 HC1    21.771879    3.390584  -13.736822 H    1314 MOH     0.0372 ****
8187 C1     20.864284    3.326897  -13.137195 C    1314 MOH     0.1166 ****
8188 HC2    20.253448    2.480190  -13.449736 H    1314 MOH     0.0372 ****
8189 HC3    20.315224    4.258928  -13.269424 H    1314 MOH     0.0372 ****
8190 O1     21.236098    3.143593  -11.812784 O    1314 MOH    -0.6497 ****
8191 HO1    21.763219    2.340977  -11.814198 H    1314 MOH     0.4215 ****
8192 HC1    30.902096   -8.835228   -2.146634 H    1315 MOH     0.0372 ****
8193 C1     30.010667   -8.208567   -2.178454 C    1315 MOH     0.1166 ****
8194 HC2    29.122125   -8.839310   -2.218759 H    1315 MOH     0.0372 ****
8195 HC3    30.019905   -7.590479   -3.076480 H    1315 MOH     0.0372 ****
8196 O1     30.021059   -7.361043   -1.056983 O    1315 MOH    -0.6497 ****
8197 HO1    30.776811   -6.780922   -1.173655 H    1315 MOH     0.4215 ****
8198 HC1    26.801177   -9.667238   -7.110524 H    1316 MOH     0.0372 ****
8199 C1     27.146432  -10.510271   -7.708029 C    1316 MOH     0.1166 ****
8200 HC2    27.886595  -11.042218   -7.109110 H    1316 MOH     0.0372 ****
8201 HC3    27.588105  -10.124476   -8.626561 H    1316 MOH     0.0372 ****
8202 O1     26.093923  -11.428013   -8.041784 O    1316 MOH    -0.6497 ****
8203 HO1    26.372783  -11.941181   -8.803338 H    1316 MOH     0.4215 ****
8204 HC1    27.320215   -9.003018  -18.564947 H    1317 MOH     0.0372 ****
8205 C1     26.689748   -9.316553  -17.733389 C    1317 MOH     0.1166 ****
8206 HC2    25.713449   -9.629271  -18.103913 H    1317 MOH     0.0372 ****
8207 HC3    26.519430   -8.489442  -17.043253 H    1317 MOH     0.0372 ****
8208 O1     27.291925  -10.370650  -17.037596 O    1317 MOH    -0.6497 ****
8209 HO1    26.641251  -10.725009  -16.428070 H    1317 MOH     0.4215 ****
8210 HC1    26.438601    5.838440  -15.373067 H    1318 MOH     0.0372 ****
8211 C1     25.531006    6.218111  -15.842586 C    1318 MOH     0.1166 ****
8212 HC2    25.661488    6.198107  -16.925166 H    1318 MOH     0.0372 ****
8213 HC3    25.387824    7.248938  -15.520852 H    1318 MOH     0.0372 ****
8214 O1     24.390740    5.424885  -15.468526 O    1318 MOH    -0.6497 ****
8215 HO1    23.617668    5.929888  -15.730863 H    1318 MOH     0.4215 ****
8216 HC1    19.320450  -14.338415  -15.368117 H    1319 MOH     0.0372 ****
8217 C1     19.964195  -13.554170  -15.764804 C    1319 MOH     0.1166 ****
8218 HC2    19.998259  -12.752779  -15.027292 H    1319 MOH     0.0372 ****
8219 HC3    19.565246  -13.114078  -16.679800 H    1319 MOH     0.0372 ****
8220 O1     21.275935  -14.018757  -15.995321 O    1319 MOH    -0.6497 ****
8221 HO1    21.718185  -13.231654  -16.320590 H    1319 MOH     0.4215 ****
8222 HC1    28.596159   -2.631487   -8.861320 H    1320 MOH     0.0372 ****
8223 C1     29.178128   -2.388987   -9.750861 C    1320 MOH     0.1166 ****
8224 HC2    29.141755   -3.210791  -10.465746 H    1320 MOH     0.0372 ****
8225 HC3    30.205234   -2.245692   -9.413571 H    1320 MOH     0.0372 ****
8226 O1     28.712206   -1.144647  -10.282605 O    1320 MOH    -0.6497 ****
8227 HO1    29.127899   -0.467363   -9.744497 H    1320 MOH     0.4215 ****
8228 HC1    26.090459   -7.197744  -11.189823 H    1321 MOH     0.0372 ****
8229 C1     26.253272   -7.421872  -10.135527 C    1321 MOH     0.1166 ****
8230 HC2    26.820807   -8.348596  -10.043603 H    1321 MOH     0.0372 ****
8231 HC3    25.269467   -7.539448   -9.681564 H    1321 MOH     0.0372 ****
8232 O1     26.946092   -6.345322   -9.543679 O    1321 MOH    -0.6497 ****
8233 HO1    27.784404   -6.254690  -10.001884 H    1321 MOH     0.4215 ****
8234 HC1    24.025854  -13.263905   -6.430287 H    1322 MOH     0.0372 ****
8235 C1     23.632679  -12.829121   -5.511756 C    1322 MOH     0.1166 ****
8236 HC2    23.448504  -11.764409   -5.653177 H    1322 MOH     0.0372 ****
8237 HC3    24.331850  -12.973233   -4.687976 H    1322 MOH     0.0372 ****
8238 O1     22.468163  -13.490075   -5.182951 O    1322 MOH    -0.6497 ****
8239 HO1    22.043811  -13.040594   -4.448267 H    1322 MOH     0.4215 ****
8240 HC1    25.812753   -7.302664  -20.525754 H    1323 MOH     0.0372 ****
8241 C1     25.679385   -8.325326  -20.878600 C    1323 MOH     0.1166 ****
8242 HC2    24.680570   -8.402893  -21.307107 H    1323 MOH     0.0372 ****
8243 HC3    25.752709   -9.042210  -20.061185 H    1323 MOH     0.0372 ****
8244 O1     26.599682   -8.602526  -21.890470 O    1323 MOH    -0.6497 ****
8245 HO1    26.715729   -9.550479  -21.982394 H    1323 MOH     0.4215 ****
8246 HC1    28.948343   -0.021964  -21.215890 H    1324 MOH     0.0372 ****
8247 C1     28.100793   -0.686592  -21.046185 C    1324 MOH     0.1166 ****
8248 HC2    27.235344   -0.042785  -20.889914 H    1324 MOH     0.0372 ****
8249 HC3    28.333465   -1.288350  -20.167958 H    1324 MOH     0.0372 ****
8250 O1     27.967425   -1.388371  -22.261701 O    1324 MOH    -0.6497 ****
8251 HO1    28.813243   -1.794170  -22.466762 H    1324 MOH     0.4215 ****
8252 HC1    26.836973  -18.827921  -15.805816 H    1325 MOH     0.0372 ****
8253 C1     27.872162  -18.523776  -15.962087 C    1325 MOH     0.1166 ****
8254 HC2    28.461059  -19.426413  -16.129671 H    1325 MOH     0.0372 ****
8255 HC3    28.245130  -17.966926  -15.103659 H    1325 MOH     0.0372 ****
8256 O1     27.869852  -17.792195  -17.138712 O    1325 MOH    -0.6497 ****
8257 HO1    28.507247  -17.083068  -17.029111 H    1325 MOH     0.4215 ****
8258 HC1    30.365737   -4.639660   -6.634641 H    1326 MOH     0.0372 ****
8259 C1     30.429246   -5.562710   -7.210933 C    1326 MOH     0.1166 ****
8260 HC2    31.460971   -5.766834   -7.496604 H    1326 MOH     0.0372 ****
8261 HC3    29.812059   -5.450850   -8.101888 H    1326 MOH     0.0372 ****
8262 O1     29.911363   -6.615990   -6.445844 O    1326 MOH    -0.6497 ****
8263 HO1    30.161355   -7.440652   -6.870108 H    1326 MOH     0.4215 ****
8264 HC1    18.314705   -5.332049  -15.117094 H    1327 MOH     0.0372 ****
8265 C1     18.148429   -4.261622  -14.998300 C    1327 MOH     0.1166 ****
8266 HC2    18.501767   -3.940739  -14.018250 H    1327 MOH     0.0372 ****
8267 HC3    17.081485   -4.048517  -15.070425 H    1327 MOH     0.0372 ****
8268 O1     18.835475   -3.547188  -16.008049 O    1327 MOH    -0.6497 ****
8269 HO1    18.744831   -4.077094  -16.802837 H    1327 MOH     0.4215 ****
8270 HC1    24.977905    0.983960  -17.966027 H    1328 MOH     0.0372 ****
8271 C1     25.849126    0.328721  -17.985119 C    1328 MOH     0.1166 ****
8272 HC2    25.848549   -0.242826  -18.912843 H    1328 MOH     0.0372 ****
8273 HC3    25.821414   -0.380406  -17.157097 H    1328 MOH     0.0372 ****
8274 O1     27.027498    1.113375  -17.911580 O    1328 MOH    -0.6497 ****
8275 HO1    26.998053    1.624093  -17.099115 H    1328 MOH     0.4215 ****
8276 HC1    20.792693   -5.781122  -15.440949 H    1329 MOH     0.0372 ****
8277 C1     21.060006   -6.785822  -15.112144 C    1329 MOH     0.1166 ****
8278 HC2    22.004551   -7.075270  -15.572471 H    1329 MOH     0.0372 ****
8279 HC3    20.297326   -7.499440  -15.421857 H    1329 MOH     0.0372 ****
8280 O1     21.227437   -6.778065  -13.683082 O    1329 MOH    -0.6497 ****
8281 HO1    20.398940   -6.590271  -13.236190 H    1329 MOH     0.4215 ****
8282 HC1    23.674248    0.296470  -13.364177 H    1330 MOH     0.0372 ****
8283 C1     23.303589   -0.100348  -12.419482 C    1330 MOH     0.1166 ****
8284 HC2    24.158067   -0.223230  -11.754094 H    1330 MOH     0.0372 ****
8285 HC3    22.831894   -1.076061  -12.535447 H    1330 MOH     0.0372 ****
8286 O1     22.448533    0.834949  -11.857332 O    1330 MOH    -0.6497 ****
8287 HO1    22.633285    0.836582  -10.915466 H    1330 MOH     0.4215 ****
8288 HC1    23.558200  -12.758086   -1.212546 H    1331 MOH     0.0372 ****
8289 C1     24.452516  -13.200627   -0.772726 C    1331 MOH     0.1166 ****
8290 HC2    24.518334  -12.927509    0.280156 H    1331 MOH     0.0372 ****
8291 HC3    25.342790  -12.830754   -1.281843 H    1331 MOH     0.0372 ****
8292 O1     24.401132  -14.613166   -0.888691 O    1331 MOH    -0.6497 ****
8293 HO1    25.306417  -14.921393   -0.800303 H    1331 MOH     0.4215 ****
8294 HC1    22.211820  -17.116545  -22.876884 H    1332 MOH     0.0372 ****
8295 C1     22.725662  -16.807501  -21.966838 C    1332 MOH     0.1166 ****
8296 HC2    23.808771  -16.833629  -22.082803 H    1332 MOH     0.0372 ****
8297 HC3    22.422553  -17.446817  -21.136694 H    1332 MOH     0.0372 ****
8298 O1     22.286298  -15.550096  -21.683995 O    1332 MOH    -0.6497 ****
8299 HO1    21.954322  -15.187980  -22.509188 H    1332 MOH     0.4215 ****
8300 HC1    22.962375   -4.378381   -7.626005 H    1333 MOH     0.0372 ****
8301 C1     22.895980   -4.638844   -6.569587 C    1333 MOH     0.1166 ****
8302 HC2    23.003944   -5.717027   -6.445844 H    1333 MOH     0.0372 ****
8303 HC3    21.912175   -4.324084   -6.220984 H    1333 MOH     0.0372 ****
8304 O1     23.879785   -3.919918   -5.846217 O    1333 MOH    -0.6497 ****
8305 HO1    24.702509   -4.028921   -6.329171 H    1333 MOH     0.4215 ****
8306 HC1    27.289038   -9.015265   -3.410234 H    1334 MOH     0.0372 ****
8307 C1     26.878542   -9.971791   -3.087086 C    1334 MOH     0.1166 ****
8308 HC2    27.657387  -10.734399   -3.065873 H    1334 MOH     0.0372 ****
8309 HC3    26.093345  -10.250625   -3.789244 H    1334 MOH     0.0372 ****
8310 O1     26.282716   -9.827271   -1.831265 O    1334 MOH    -0.6497 ****
8311 HO1    26.903368   -9.378198   -1.252851 H    1334 MOH     0.4215 ****
8312 HC1    23.671939    1.710234  -16.439384 H    1335 MOH     0.0372 ****
8313 C1     24.238319    2.015195  -15.559036 C    1335 MOH     0.1166 ****
8314 HC2    24.623989    1.121540  -15.067597 H    1335 MOH     0.0372 ****
8315 HC3    23.584181    2.538978  -14.862536 H    1335 MOH     0.0372 ****
8316 O1     25.332975    2.829650  -15.964208 O    1335 MOH    -0.6497 ****
8317 HO1    24.981946    3.704935  -16.140985 H    1335 MOH     0.4215 ****
8318 HC1    15.588457   -7.694582  -17.042546 H    1336 MOH     0.0372 ****
8319 C1     16.147332   -7.062206  -16.353117 C    1336 MOH     0.1166 ****
8320 HC2    16.192366   -6.061589  -16.783745 H    1336 MOH     0.0372 ****
8321 HC3    17.160582   -7.456573  -16.272507 H    1336 MOH     0.0372 ****
8322 O1     15.482225   -7.049958  -15.064768 O    1336 MOH    -0.6497 ****
8323 HO1    15.949301   -7.668046  -14.499083 H    1336 MOH     0.4215 ****
8324 HC1    24.063382  -13.907713  -19.143360 H    1337 MOH     0.0372 ****
8325 C1     23.181191  -13.324326  -18.882438 C    1337 MOH     0.1166 ****
8326 HC2    23.485454  -12.325751  -18.571311 H    1337 MOH     0.0372 ****
8327 HC3    22.645987  -13.814224  -18.069265 H    1337 MOH     0.0372 ****
8328 O1     22.360199  -13.269213  -20.049871 O    1337 MOH    -0.6497 ****
8329 HO1    22.269555  -14.157969  -20.402717 H    1337 MOH     0.4215 ****
8330 HC1    25.793701  -12.044876  -14.076940 H    1338 MOH     0.0372 ****
8331 C1     25.481932  -11.001393  -14.112295 C    1338 MOH     0.1166 ****
8332 HC2    26.287913  -10.344114  -13.784198 H    1338 MOH     0.0372 ****
8333 HC3    24.639000  -10.878102  -13.433473 H    1338 MOH     0.0372 ****
8334 O1     25.028712  -10.655199  -15.406301 O    1338 MOH    -0.6497 ****
8335 HO1    24.817401   -9.719494  -15.376602 H    1338 MOH     0.4215 ****
8336 HC1    21.518999  -12.874028  -13.260232 H    1339 MOH     0.0372 ****
8337 C1     22.290339  -13.167151  -12.547468 C    1339 MOH     0.1166 ****
8338 HC2    23.188119  -13.423530  -13.110325 H    1339 MOH     0.0372 ****
8339 HC3    21.960095  -14.055499  -12.008653 H    1339 MOH     0.0372 ****
8340 O1     22.550724  -12.089783  -11.638836 O    1339 MOH    -0.6497 ****
8341 HO1    21.884462  -12.114686  -10.947993 H    1339 MOH     0.4215 ****
8342 HC1    21.389673  -12.263289   -7.377103 H    1340 MOH     0.0372 ****
8343 C1     21.872915  -12.413932   -8.342304 C    1340 MOH     0.1166 ****
8344 HC2    22.328444  -13.403526   -8.362103 H    1340 MOH     0.0372 ****
8345 HC3    22.633285  -11.644793   -8.480897 H    1340 MOH     0.0372 ****
8346 O1     20.841767  -12.364534   -9.328718 O    1340 MOH    -0.6497 ****
8347 HO1    20.329080  -11.563551   -9.198610 H    1340 MOH     0.4215 ****
8348 HC1    17.089568  -10.835645  -13.710659 H    1341 MOH     0.0372 ****
8349 C1     17.677311   -9.919944  -13.649141 C    1341 MOH     0.1166 ****
8350 HC2    18.143232   -9.709288  -14.612220 H    1341 MOH     0.0372 ****
8351 HC3    18.465971  -10.068546  -12.912335 H    1341 MOH     0.0372 ****
8352 O1     16.895578   -8.795220  -13.273667 O    1341 MOH    -0.6497 ****
8353 HO1    16.495475   -8.959335  -12.416653 H    1341 MOH     0.4215 ****
8354 HC1    30.223017    3.971766  -11.797935 H    1342 MOH     0.0372 ****
8355 C1     29.422232    3.577806  -11.172145 C    1342 MOH     0.1166 ****
8356 HC2    28.856428    2.847450  -11.751266 H    1342 MOH     0.0372 ****
8357 HC3    28.749619    4.354703  -10.810814 H    1342 MOH     0.0372 ****
8358 O1     29.919330    2.836836  -10.127749 O    1342 MOH    -0.6497 ****
8359 HO1    30.463772    3.432878   -9.608732 H    1342 MOH     0.4215 ****
8360 HC1    29.434933   10.526600  -10.631209 H    1343 MOH     0.0372 ****
8361 C1     30.475319   10.553953  -10.957185 C    1343 MOH     0.1166 ****
8362 HC2    31.059597    9.914228  -10.294626 H    1343 MOH     0.0372 ****
8363 HC3    30.816533   11.587638  -10.903445 H    1343 MOH     0.0372 ****
8364 O1     30.542291   10.071812  -12.280182 O    1343 MOH    -0.6497 ****
8365 HO1    29.947620    9.319002  -12.324022 H    1343 MOH     0.4215 ****
8366 HC1    29.261151    5.506779  -19.646820 H    1344 MOH     0.0372 ****
8367 C1     29.303875    5.748462  -18.584746 C    1344 MOH     0.1166 ****
8368 HC2    30.340796    5.686409  -18.253820 H    1344 MOH     0.0372 ****
8369 HC3    28.706317    5.046684  -18.002797 H    1344 MOH     0.0372 ****
8370 O1     28.870285    7.042201  -18.315338 O    1344 MOH    -0.6497 ****
8371 HO1    28.100677    7.233670  -18.856275 H    1344 MOH     0.4215 ****
8372 HC1    26.657879    9.444334  -11.931578 H    1345 MOH     0.0372 ****
8373 C1     26.223134    8.558844  -11.468423 C    1345 MOH     0.1166 ****
8374 HC2    25.810906    7.884009  -12.218664 H    1345 MOH     0.0372 ****
8375 HC3    25.400987    8.845026  -10.811521 H    1345 MOH     0.0372 ****
8376 O1     27.128419    7.856248  -10.672928 O    1345 MOH    -0.6497 ****
8377 HO1    26.601876    7.138548  -10.312304 H    1345 MOH     0.4215 ****
8378 HC1    30.830389    7.945247   -9.192246 H    1346 MOH     0.0372 ****
8379 C1     30.438946    7.176107   -9.856927 C    1346 MOH     0.1166 ****
8380 HC2    30.938354    7.209991  -10.824956 H    1346 MOH     0.0372 ****
8381 HC3    29.367383    7.338590   -9.981378 H    1346 MOH     0.0372 ****
8382 O1     30.579819    5.909312   -9.272150 O    1346 MOH    -0.6497 ****
8383 HO1    30.133527    5.908904   -8.422914 H    1346 MOH     0.4215 ****
8384 HC1    29.912979   11.070387  -15.117094 H    1347 MOH     0.0372 ****
8385 C1     29.746703   12.140814  -14.998300 C    1347 MOH     0.1166 ****
8386 HC2    30.100041   12.461697  -14.018250 H    1347 MOH     0.0372 ****
8387 HC3    28.679759   12.353920  -15.070425 H    1347 MOH     0.0372 ****
8388 O1     30.433749   12.855249  -16.008049 O    1347 MOH    -0.6497 ****
8389 HO1    30.343105   12.325342  -16.802837 H    1347 MOH     0.4215 ****
8390 HC1    27.186732    8.707854  -17.042546 H    1348 MOH     0.0372 ****
8391 C1     27.745607    9.340231  -16.353117 C    1348 MOH     0.1166 ****
8392 HC2    27.790640   10.340847  -16.783745 H    1348 MOH     0.0372 ****
8393 HC3    28.758856    8.945863  -16.272507 H    1348 MOH     0.0372 ****
8394 O1     27.080499    9.352478  -15.064768 O    1348 MOH    -0.6497 ****
8395 HO1    27.547575    8.734390  -14.499083 H    1348 MOH     0.4215 ****
8396 HC1    28.687842    5.566792  -13.710659 H    1349 MOH     0.0372 ****
8397 C1     29.275585    6.482493  -13.649141 C    1349 MOH     0.1166 ****
8398 HC2    29.741506    6.693149  -14.612220 H    1349 MOH     0.0372 ****
8399 HC3    30.064245    6.333890  -12.912335 H    1349 MOH     0.0372 ****
8400 O1     28.493852    7.607217  -13.273667 O    1349 MOH    -0.6497 ****
8401 HO1    28.093749    7.443101  -12.416653 H    1349 MOH     0.4215 ****
8402 HC1   -28.527339   -8.053841   10.722426 H    1350 MOH     0.0372 ****
8403 C1    -28.721906   -7.312462   11.497415 C    1350 MOH     0.1166 ****
8404 HC2   -29.785962   -7.270412   11.730053 H    1350 MOH     0.0372 ****
8405 HC3   -28.420529   -6.324093   11.150225 H    1350 MOH     0.0372 ****
8406 O1    -28.052180   -7.642735   12.708689 O    1350 MOH    -0.6497 ****
8407 HO1   -28.269841   -8.537207   12.980925 H    1350 MOH     0.4215 ****
8408 HC1   -28.848346   -6.024030   14.504033 H    1351 MOH     0.0372 ****
8409 C1    -28.765784   -5.084242   15.049919 C    1351 MOH     0.1166 ****
8410 HC2   -29.592550   -4.428596   14.776976 H    1351 MOH     0.0372 ****
8411 HC3   -27.808538   -4.622105   14.805260 H    1351 MOH     0.0372 ****
8412 O1    -28.806776   -5.442276   16.391301 O    1351 MOH    -0.6497 ****
8413 HO1   -28.582764   -4.699264   16.955572 H    1351 MOH     0.4215 ****
8414 HC1   -29.290019  -12.529875   12.737680 H    1352 MOH     0.0372 ****
8415 C1    -30.195881  -12.205317   12.226442 C    1352 MOH     0.1166 ****
8416 HC2   -31.081536  -12.598052   12.725659 H    1352 MOH     0.0372 ****
8417 HC3   -30.188376  -12.553553   11.193359 H    1352 MOH     0.0372 ****
8418 O1    -30.288834  -10.813191   12.240584 O    1352 MOH    -0.6497 ****
8419 HO1   -30.018635  -10.527825   13.116689 H    1352 MOH     0.4215 ****
8420 HC1   -29.690122  -13.635819   17.174775 H    1353 MOH     0.0372 ****
8421 C1    -29.306184  -13.038960   16.347460 C    1353 MOH     0.1166 ****
8422 HC2   -28.618560  -13.656232   15.769047 H    1353 MOH     0.0372 ****
8423 HC3   -28.805044  -12.177148   16.789402 H    1353 MOH     0.0372 ****
8424 O1    -30.371396  -12.599277   15.560450 O    1353 MOH    -0.6497 ****
8425 HO1   -30.900826  -13.355353   15.298821 H    1353 MOH     0.4215 ****
8426 HC1   -29.798087   -8.179173   15.910468 H    1354 MOH     0.0372 ****
8427 C1    -29.157805   -9.054457   16.019362 C    1354 MOH     0.1166 ****
8428 HC2   -29.307916   -9.455357   17.022040 H    1354 MOH     0.0372 ****
8429 HC3   -28.119152   -8.741739   15.913296 H    1354 MOH     0.0372 ****
8430 O1    -29.537124   -9.996286   15.015978 O    1354 MOH    -0.6497 ****
8431 HO1   -29.608139  -10.869529   15.408422 H    1354 MOH     0.4215 ****
8432 HC1   -31.662351   -5.965650   20.331300 H    1355 MOH     0.0372 ****
8433 C1    -30.803831   -5.603943   19.765614 C    1355 MOH     0.1166 ****
8434 HC2   -31.151973   -5.084651   18.873245 H    1355 MOH     0.0372 ****
8435 HC3   -30.174519   -6.444526   19.472165 H    1355 MOH     0.0372 ****
8436 O1    -30.054430   -4.714369   20.561109 O    1355 MOH    -0.6497 ****
8437 HO1   -29.886999   -5.132824   21.408930 H    1355 MOH     0.4215 ****
8438 HC1   -27.257284    5.210800   21.118309 H    1356 MOH     0.0372 ****
8439 C1    -27.196085    5.990554   21.876328 C    1356 MOH     0.1166 ****
8440 HC2   -26.835818    5.544747   22.804052 H    1356 MOH     0.0372 ****
8441 HC3   -28.189127    6.415949   22.021992 H    1356 MOH     0.0372 ****
8442 O1    -26.324863    7.013216   21.448528 O    1356 MOH    -0.6497 ****
8443 HO1   -25.438053    6.653141   21.382060 H    1356 MOH     0.4215 ****
8444 HC1   -20.998807    9.959952   15.337712 H    1357 MOH     0.0372 ****
8445 C1    -20.565217   10.153053   16.318469 C    1357 MOH     0.1166 ****
8446 HC2   -20.279428   11.203885   16.369380 H    1357 MOH     0.0372 ****
8447 HC3   -19.677252    9.533741   16.445041 H    1357 MOH     0.0372 ****
8448 O1    -21.519577    9.838294   17.326096 O    1357 MOH    -0.6497 ****
8449 HO1   -21.318659    8.946680   17.618838 H    1357 MOH     0.4215 ****
8450 HC1   -27.636025   -0.893737    7.705201 H    1358 MOH     0.0372 ****
8451 C1    -27.823087   -1.879657    8.130172 C    1358 MOH     0.1166 ****
8452 HC2   -28.215108   -1.784943    9.142749 H    1358 MOH     0.0372 ****
8453 HC3   -26.865840   -2.396091    8.198761 H    1358 MOH     0.0372 ****
8454 O1    -28.664286   -2.683498    7.280937 O    1358 MOH    -0.6497 ****
8455 HO1   -29.380201   -3.029692    7.818338 H    1358 MOH     0.4215 ****
8456 HC1   -25.005618   -0.421802   14.342105 H    1359 MOH     0.0372 ****
8457 C1    -25.854323    0.012982   14.870314 C    1359 MOH     0.1166 ****
8458 HC2   -25.990577    1.040135   14.532317 H    1359 MOH     0.0372 ****
8459 HC3   -25.689778    0.000735   15.947945 H    1359 MOH     0.0372 ****
8460 O1    -27.019993   -0.685122   14.536560 O    1359 MOH    -0.6497 ****
8461 HO1   -26.992857   -1.485697   15.066183 H    1359 MOH     0.4215 ****
8462 HC1   -16.929065    8.348596   10.722426 H    1360 MOH     0.0372 ****
8463 C1    -17.123632    9.089975   11.497415 C    1360 MOH     0.1166 ****
8464 HC2   -18.187688    9.132024   11.730053 H    1360 MOH     0.0372 ****
8465 HC3   -16.822255   10.078344   11.150225 H    1360 MOH     0.0372 ****
8466 O1    -16.453905    8.759702   12.708689 O    1360 MOH    -0.6497 ****
8467 HO1   -16.671566    7.865230   12.980925 H    1360 MOH     0.4215 ****
8468 HC1   -26.111243    6.653957    4.728281 H    1361 MOH     0.0372 ****
8469 C1    -26.903368    6.121602    5.254369 C    1361 MOH     0.1166 ****
8470 HC2   -26.876232    6.379206    6.312908 H    1361 MOH     0.0372 ****
8471 HC3   -26.737668    5.054032    5.112240 H    1361 MOH     0.0372 ****
8472 O1    -28.131969    6.537198    4.698583 O    1361 MOH    -0.6497 ****
8473 HO1   -28.826522    6.178348    5.256490 H    1361 MOH     0.4215 ****
8474 HC1   -25.414959   14.544988    3.608931 H    1362 MOH     0.0372 ****
8475 C1    -24.877446   14.887509    2.724341 C    1362 MOH     0.1166 ****
8476 HC2   -25.205381   14.313512    1.857428 H    1362 MOH     0.0372 ****
8477 HC3   -23.818008   14.702981    2.902532 H    1362 MOH     0.0372 ****
8478 O1    -25.137831   16.268204    2.455640 O    1362 MOH    -0.6497 ****
8479 HO1   -24.878600   16.473145    1.554786 H    1362 MOH     0.4215 ****
8480 HC1   -22.046120   12.712770   12.251190 H    1363 MOH     0.0372 ****
8481 C1    -21.997623   11.625197   12.200279 C    1363 MOH     0.1166 ****
8482 HC2   -22.375787   11.270429   11.242149 H    1363 MOH     0.0372 ****
8483 HC3   -22.604418   11.178573   12.987996 H    1363 MOH     0.0372 ****
8484 O1    -20.661057   11.190821   12.273818 O    1363 MOH    -0.6497 ****
8485 HO1   -20.693388   10.231437   12.295031 H    1363 MOH     0.4215 ****
8486 HC1   -30.956367   11.688067    6.677775 H    1364 MOH     0.0372 ****
8487 C1    -30.910756   11.233278    5.687825 C    1364 MOH     0.1166 ****
8488 HC2   -29.993347   10.654382    5.578931 H    1364 MOH     0.0372 ****
8489 HC3   -30.921148   12.010991    4.924857 H    1364 MOH     0.0372 ****
8490 O1    -32.014072   10.396778    5.470743 O    1364 MOH    -0.6497 ****
8491 HO1   -31.754842    9.509246    5.728130 H    1364 MOH     0.4215 ****
8492 HC1   -22.849214    7.131200    5.173052 H    1365 MOH     0.0372 ****
8493 C1    -22.650606    8.091808    5.647520 C    1365 MOH     0.1166 ****
8494 HC2   -21.585972    8.308996    5.564082 H    1365 MOH     0.0372 ****
8495 HC3   -22.879814    8.056698    6.712423 H    1365 MOH     0.0372 ****
8496 O1    -23.443885    9.087525    4.996275 O    1365 MOH    -0.6497 ****
8497 HO1   -23.396542    9.863605    5.559839 H    1365 MOH     0.4215 ****
8498 HC1   -24.007956    1.663938   10.185024 H    1366 MOH     0.0372 ****
8499 C1    -23.960614    2.387354   10.999611 C    1366 MOH     0.1166 ****
8500 HC2   -24.753893    3.114853   10.828492 H    1366 MOH     0.0372 ****
8501 HC3   -22.999903    2.900931   10.952942 H    1366 MOH     0.0372 ****
8502 O1    -24.145943    1.745588   12.293617 O    1366 MOH    -0.6497 ****
8503 HO1   -24.337623    2.421239   12.949105 H    1366 MOH     0.4215 ****
8504 HC1   -17.250071   10.378406   14.504033 H    1367 MOH     0.0372 ****
8505 C1    -17.167510   11.318194   15.049919 C    1367 MOH     0.1166 ****
8506 HC2   -17.994276   11.973841   14.776976 H    1367 MOH     0.0372 ****
8507 HC3   -16.210264   11.780331   14.805260 H    1367 MOH     0.0372 ****
8508 O1    -17.208502   10.960160   16.391301 O    1367 MOH    -0.6497 ****
8509 HO1   -16.984490   11.703172   16.955572 H    1367 MOH     0.4215 ****
8510 HC1   -29.342673   15.002635   14.247353 H    1368 MOH     0.0372 ****
8511 C1    -30.008358   15.861589   14.332206 C    1368 MOH     0.1166 ****
8512 HC2   -31.050475   15.541523   14.325134 H    1368 MOH     0.0372 ****
8513 HC3   -29.873258   16.486209   13.449736 H    1368 MOH     0.0372 ****
8514 O1    -29.782614   16.658490   15.535701 O    1368 MOH    -0.6497 ****
8515 HO1   -29.855360   16.091433   16.305741 H    1368 MOH     0.4215 ****
8516 HC1   -29.268195    4.348579   23.197203 H    1369 MOH     0.0372 ****
8517 C1    -28.968550    3.301422   23.182354 C    1369 MOH     0.1166 ****
8518 HC2   -28.334619    3.112812   22.315441 H    1369 MOH     0.0372 ****
8519 HC3   -29.836307    2.647409   23.103158 H    1369 MOH     0.0372 ****
8520 O1    -28.263605    2.990337   24.375950 O    1369 MOH    -0.6497 ****
8521 HO1   -27.829438    2.141997   24.257156 H    1369 MOH     0.4215 ****
8522 HC1   -22.462390   -0.999065   10.789601 H    1370 MOH     0.0372 ****
8523 C1    -23.142508   -1.567755   11.423876 C    1370 MOH     0.1166 ****
8524 HC2   -22.788015   -1.530604   12.454130 H    1370 MOH     0.0372 ****
8525 HC3   -23.197357   -2.604297   11.092242 H    1370 MOH     0.0372 ****
8526 O1    -24.375151   -0.944768   11.341851 O    1370 MOH    -0.6497 ****
8527 HO1   -24.272960   -0.051929   11.677727 H    1370 MOH     0.4215 ****
8528 HC1   -28.594427    5.464322   15.773289 H    1371 MOH     0.0372 ****
8529 C1    -28.734723    5.310004   14.704144 C    1371 MOH     0.1166 ****
8530 HC2   -28.931022    6.264488   14.214826 H    1371 MOH     0.0372 ****
8531 HC3   -29.568994    4.631087   14.528074 H    1371 MOH     0.0372 ****
8532 O1    -27.559238    4.755603   14.152601 O    1371 MOH    -0.6497 ****
8533 HO1   -26.912606    4.654765   14.854758 H    1371 MOH     0.4215 ****
8534 HC1   -25.831229   13.500689   17.063759 H    1372 MOH     0.0372 ****
8535 C1    -25.348564   12.534774   16.916681 C    1372 MOH     0.1166 ****
8536 HC2   -26.121636   11.780739   16.768896 H    1372 MOH     0.0372 ****
8537 HC3   -24.783915   12.292274   17.816121 H    1372 MOH     0.0372 ****
8538 O1    -24.440392   12.562535   15.793795 O    1372 MOH    -0.6497 ****
8539 HO1   -23.729096   13.166742   16.022898 H    1372 MOH     0.4215 ****
8540 HC1   -31.138232    5.258156    8.404529 H    1373 MOH     0.0372 ****
8541 C1    -31.299313    4.245292    8.772932 C    1373 MOH     0.1166 ****
8542 HC2   -32.050446    4.290200    9.560649 H    1373 MOH     0.0372 ****
8543 HC3   -30.374398    3.844801    9.188004 H    1373 MOH     0.0372 ****
8544 O1    -31.750801    3.398585    7.716515 O    1373 MOH    -0.6497 ****
8545 HO1   -31.346078    2.540448    7.866421 H    1373 MOH     0.4215 ****
8546 HC1   -22.132723   -0.624701   16.018655 H    1374 MOH     0.0372 ****
8547 C1    -22.299000   -0.537745   17.092751 C    1374 MOH     0.1166 ****
8548 HC2   -22.226831    0.518394   17.352259 H    1374 MOH     0.0372 ****
8549 HC3   -21.512071   -1.091737   17.605403 H    1374 MOH     0.0372 ****
8550 O1    -23.624596   -1.056628   17.326803 O    1374 MOH    -0.6497 ****
8551 HO1   -23.935788   -0.707984   18.165432 H    1374 MOH     0.4215 ****
8552 HC1   -27.336958   18.302098    8.191690 H    1375 MOH     0.0372 ****
8553 C1    -27.917772   18.683401    9.031733 C    1375 MOH     0.1166 ****
8554 HC2   -27.620437   19.690550    9.323768 H    1375 MOH     0.0372 ****
8555 HC3   -27.709926   18.028163    9.878140 H    1375 MOH     0.0372 ****
8556 O1    -29.297062   18.639719    8.746769 O    1375 MOH    -0.6497 ****
8557 HO1   -29.702362   17.964884    9.296191 H    1375 MOH     0.4215 ****
8558 HC1   -22.539177    5.513312   14.837080 H    1376 MOH     0.0372 ****
8559 C1    -22.555920    4.506163   14.419180 C    1376 MOH     0.1166 ****
8560 HC2   -22.054203    3.847659   15.126994 H    1376 MOH     0.0372 ****
8561 HC3   -22.004551    4.477586   13.478728 H    1376 MOH     0.0372 ****
8562 O1    -23.898837    4.070562   14.269980 O    1376 MOH    -0.6497 ****
8563 HO1   -24.390740    4.331433   15.052747 H    1376 MOH     0.4215 ****
8564 HC1   -28.404479    9.304305   13.968753 H    1377 MOH     0.0372 ****
8565 C1    -29.467958    9.505163   13.837231 C    1377 MOH     0.1166 ****
8566 HC2   -30.049927    8.584155   13.864101 H    1377 MOH     0.0372 ****
8567 HC3   -29.633080    9.975874   12.867787 H    1377 MOH     0.0372 ****
8568 O1    -29.918291   10.395553   14.816574 O    1377 MOH    -0.6497 ****
8569 HO1   -29.808017   11.290025   14.486355 H    1377 MOH     0.4215 ****
8570 HC1   -24.691539   12.231854   11.172145 H    1378 MOH     0.0372 ****
8571 C1    -25.095684   12.577640   10.221087 C    1378 MOH     0.1166 ****
8572 HC2   -26.028682   12.054266   10.008955 H    1378 MOH     0.0372 ****
8573 HC3   -24.374574   12.432712    9.417106 H    1378 MOH     0.0372 ****
8574 O1    -25.342213   13.943639   10.375236 O    1378 MOH    -0.6497 ****
8575 HO1   -24.517757   14.399244   10.563326 H    1378 MOH     0.4215 ****
8576 HC1   -28.924094    0.976040   16.375744 H    1379 MOH     0.0372 ****
8577 C1    -29.110001    1.561876   15.475597 C    1379 MOH     0.1166 ****
8578 HC2   -29.092103    0.938073   14.581814 H    1379 MOH     0.0372 ****
8579 HC3   -28.362332    2.347346   15.366703 H    1379 MOH     0.0372 ****
8580 O1    -30.352458    2.150162   15.604998 O    1379 MOH    -0.6497 ****
8581 HO1   -30.650949    2.260797   14.699194 H    1379 MOH     0.4215 ****
8582 HC1   -27.739371    4.551070   17.794908 H    1380 MOH     0.0372 ****
8583 C1    -26.985352    3.797444   17.567219 C    1380 MOH     0.1166 ****
8584 HC2   -27.471481    2.907871   17.167704 H    1380 MOH     0.0372 ****
8585 HC3   -26.496336    3.507996   18.497065 H    1380 MOH     0.0372 ****
8586 O1    -26.051199    4.339598   16.622525 O    1380 MOH    -0.6497 ****
8587 HO1   -25.834693    5.237336   16.882033 H    1380 MOH     0.4215 ****
8588 HC1   -29.493939   12.903830    8.708585 H    1381 MOH     0.0372 ****
8589 C1    -29.731230   12.617240    9.733890 C    1381 MOH     0.1166 ****
8590 HC2   -28.969127   11.954653   10.143305 H    1381 MOH     0.0372 ****
8591 HC3   -30.684435   12.088559    9.714798 H    1381 MOH     0.0372 ****
8592 O1    -29.832843   13.743597   10.571812 O    1381 MOH    -0.6497 ****
8593 HO1   -29.059194   14.300040   10.452311 H    1381 MOH     0.4215 ****
8594 HC1   -22.451997   14.119186    9.505495 H    1382 MOH     0.0372 ****
8595 C1    -22.031686   15.002635    9.986327 C    1382 MOH     0.1166 ****
8596 HC2   -21.778230   15.744422    9.229016 H    1382 MOH     0.0372 ****
8597 HC3   -21.144876   14.719719   10.552720 H    1382 MOH     0.0372 ****
8598 O1    -23.036853   15.499065   10.809400 O    1382 MOH    -0.6497 ****
8599 HO1   -22.680628   15.695432   11.678434 H    1382 MOH     0.4215 ****
8600 HC1   -30.433288   -2.510400   18.096842 H    1383 MOH     0.0372 ****
8601 C1    -29.357107   -2.502235   17.927137 C    1383 MOH     0.1166 ****
8602 HC2   -28.936796   -1.642056   18.446860 H    1383 MOH     0.0372 ****
8603 HC3   -29.153302   -2.441815   16.857991 H    1383 MOH     0.0372 ****
8604 O1    -28.763591   -3.646964   18.427768 O    1383 MOH    -0.6497 ****
8605 HO1   -29.225471   -3.908242   19.226799 H    1383 MOH     0.4215 ****
8606 HC1   -29.123857    8.415549    9.279928 H    1384 MOH     0.0372 ****
8607 C1    -29.109423    9.123043    8.450491 C    1384 MOH     0.1166 ****
8608 HC2   -30.100156    9.554153    8.309070 H    1384 MOH     0.0372 ****
8609 HC3   -28.770519    8.629879    7.539738 H    1384 MOH     0.0372 ****
8610 O1    -28.232428   10.174691    8.757376 O    1384 MOH    -0.6497 ****
8611 HO1   -28.036129   10.181631    9.697121 H    1384 MOH     0.4215 ****
8612 HC1   -22.992397    4.580873   22.609598 H    1385 MOH     0.0372 ****
8613 C1    -22.917342    5.622722   22.299885 C    1385 MOH     0.1166 ****
8614 HC2   -21.878689    5.847259   22.056640 H    1385 MOH     0.0372 ****
8615 HC3   -23.279340    6.224072   23.134978 H    1385 MOH     0.0372 ****
8616 O1    -23.805307    5.780306   21.223668 O    1385 MOH    -0.6497 ****
8617 HO1   -23.438112    5.259789   20.505955 H    1385 MOH     0.4215 ****
8618 HC1   -24.369955   13.054066    6.631106 H    1386 MOH     0.0372 ****
8619 C1    -23.626328   12.533141    6.028651 C    1386 MOH     0.1166 ****
8620 HC2   -22.710650   13.122651    5.980567 H    1386 MOH     0.0372 ****
8621 HC3   -23.962346   12.411891    4.998396 H    1386 MOH     0.0372 ****
8622 O1    -23.288001   11.304314    6.612721 O    1386 MOH    -0.6497 ****
8623 HO1   -23.991791   11.032828    7.205983 H    1386 MOH     0.4215 ****
8624 HC1   -23.654041    7.376965   11.290939 H    1387 MOH     0.0372 ****
8625 C1    -23.693300    6.307355   11.085878 C    1387 MOH     0.1166 ****
8626 HC2   -24.471569    5.879102   11.717325 H    1387 MOH     0.0372 ****
8627 HC3   -22.724507    5.870937   11.329830 H    1387 MOH     0.0372 ****
8628 O1    -23.981976    6.015457    9.717627 O    1387 MOH    -0.6497 ****
8629 HO1   -23.552427    5.201002    9.445391 H    1387 MOH     0.4215 ****
8630 HC1   -19.492500    6.057098    9.044461 H    1388 MOH     0.0372 ****
8631 C1    -20.015002    6.986271    9.272150 C    1388 MOH     0.1166 ****
8632 HC2   -21.047304    6.773166    9.550750 H    1388 MOH     0.0372 ****
8633 HC3   -19.974587    7.632528    8.396044 H    1388 MOH     0.0372 ****
8634 O1    -19.327378    7.549654   10.338467 O    1388 MOH    -0.6497 ****
8635 HO1   -18.864920    6.834403   10.781115 H    1388 MOH     0.4215 ****
8636 HC1   -26.092191    1.271204   18.684448 H    1389 MOH     0.0372 ****
8637 C1    -25.841044    0.750687   19.608636 C    1389 MOH     0.1166 ****
8638 HC2   -26.507883   -0.102960   19.729552 H    1389 MOH     0.0372 ****
8639 HC3   -25.964019    1.420623   20.459286 H    1389 MOH     0.0372 ****
8640 O1    -24.501014    0.319985   19.511763 O    1389 MOH    -0.6497 ****
8641 HO1   -24.311065   -0.235641   20.270488 H    1389 MOH     0.4215 ****
8642 HC1   -24.619370    8.201627    8.663331 H    1390 MOH     0.0372 ****
8643 C1    -25.556410    8.457598    8.170477 C    1390 MOH     0.1166 ****
8644 HC2   -26.394722    8.125692    8.783539 H    1390 MOH     0.0372 ****
8645 HC3   -25.574885    7.958719    7.201741 H    1390 MOH     0.0372 ****
8646 O1    -25.587009    9.841152    7.953395 O    1390 MOH    -0.6497 ****
8647 HO1   -26.503264   10.082426    7.801367 H    1390 MOH     0.4215 ****
8648 HC1   -27.948949    3.491666    6.955668 H    1391 MOH     0.0372 ****
8649 C1    -27.643531    2.511462    6.588679 C    1391 MOH     0.1166 ****
8650 HC2   -26.694367    2.591070    6.059056 H    1391 MOH     0.0372 ****
8651 HC3   -28.410252    2.119135    5.921878 H    1391 MOH     0.0372 ****
8652 O1    -27.489956    1.590862    7.662774 O    1391 MOH    -0.6497 ****
8653 HO1   -26.640674    1.156894    7.554587 H    1391 MOH     0.4215 ****
8654 HC1   -22.107897    0.843359   13.628634 H    1392 MOH     0.0372 ****
8655 C1    -21.236675    1.346730   13.209320 C    1392 MOH     0.1166 ****
8656 HC2   -21.534588    2.295907   12.765964 H    1392 MOH     0.0372 ****
8657 HC3   -20.797889    0.735174   12.420189 H    1392 MOH     0.0372 ****
8658 O1    -20.267881    1.621889   14.195027 O    1392 MOH    -0.6497 ****
8659 HO1   -19.837755    0.783755   14.378168 H    1392 MOH     0.4215 ****
8660 HC1   -30.663073    7.167125    1.880762 H    1393 MOH     0.0372 ****
8661 C1    -29.739312    7.355328    1.332755 C    1393 MOH     0.1166 ****
8662 HC2   -29.148683    6.440443    1.370231 H    1393 MOH     0.0372 ****
8663 HC3   -29.216810    8.178765    1.819951 H    1393 MOH     0.0372 ****
8664 O1    -30.012399    7.707646   -0.021355 O    1393 MOH    -0.6497 ****
8665 HO1   -29.230667    8.129775   -0.384808 H    1393 MOH     0.4215 ****
8666 HC1   -26.555226   16.422931   11.901880 H    1394 MOH     0.0372 ****
8667 C1    -27.570208   16.039586   11.797935 C    1394 MOH     0.1166 ****
8668 HC2   -28.291318   16.856899   11.819148 H    1394 MOH     0.0372 ****
8669 HC3   -27.805189   15.344747   12.604037 H    1394 MOH     0.0372 ****
8670 O1    -27.697802   15.327600   10.615652 O    1394 MOH    -0.6497 ****
8671 HO1   -26.977269   14.694407   10.583833 H    1394 MOH     0.4215 ****
8672 HC1   -27.021725    2.088925   11.974712 H    1395 MOH     0.0372 ****
8673 C1    -27.519978    1.313253   11.394884 C    1395 MOH     0.1166 ****
8674 HC2   -26.793094    0.567792   11.072443 H    1395 MOH     0.0372 ****
8675 HC3   -27.982436    1.787229   10.528678 H    1395 MOH     0.0372 ****
8676 O1    -28.495123    0.682510   12.191793 O    1395 MOH    -0.6497 ****
8677 HO1   -28.023427    0.313453   12.941327 H    1395 MOH     0.4215 ****
8678 HC1   -23.681176    8.140798   19.161745 H    1396 MOH     0.0372 ****
8679 C1    -24.303560    9.035270   19.152553 C    1396 MOH     0.1166 ****
8680 HC2   -23.859577    9.822372   19.762079 H    1396 MOH     0.0372 ****
8681 HC3   -25.275240    8.757253   19.561967 H    1396 MOH     0.0372 ****
8682 O1    -24.483116    9.488017   17.830970 O    1396 MOH    -0.6497 ****
8683 HO1   -23.625751    9.763585   17.497923 H    1396 MOH     0.4215 ****
8684 HC1   -27.697225   13.787688    7.681159 H    1397 MOH     0.0372 ****
8685 C1    -27.104286   13.449250    6.831924 C    1397 MOH     0.1166 ****
8686 HC2   -26.737091   12.453532    7.080118 H    1397 MOH     0.0372 ****
8687 HC3   -26.257313   14.119186    6.679896 H    1397 MOH     0.0372 ****
8688 O1    -27.908535   13.398219    5.661662 O    1397 MOH    -0.6497 ****
8689 HO1   -27.501503   12.747880    5.083956 H    1397 MOH     0.4215 ****
8690 HC1   -28.052295    8.320427   17.002241 H    1398 MOH     0.0372 ****
8691 C1    -27.598498    9.199794   17.459032 C    1398 MOH     0.1166 ****
8692 HC2   -26.761340    9.516594   16.836778 H    1398 MOH     0.0372 ****
8693 HC3   -27.294812    8.950762   18.475851 H    1398 MOH     0.0372 ****
8694 O1    -28.548816   10.197553   17.423676 O    1398 MOH    -0.6497 ****
8695 HO1   -28.876751   10.253074   16.522822 H    1398 MOH     0.4215 ****
8696 HC1   -20.689347   11.639486   22.379081 H    1399 MOH     0.0372 ****
8697 C1    -20.942227   12.504155   22.992850 C    1399 MOH     0.1166 ****
8698 HC2   -20.134514   12.687459   23.700663 H    1399 MOH     0.0372 ****
8699 HC3   -21.860213   12.271454   23.531665 H    1399 MOH     0.0372 ****
8700 O1    -21.134484   13.612549   22.136543 O    1399 MOH    -0.6497 ****
8701 HO1   -21.819799   13.341473   21.521360 H    1399 MOH     0.4215 ****
8702 HC1   -24.429999    4.380014   18.844961 H    1400 MOH     0.0372 ****
8703 C1    -23.607275    3.689258   18.659699 C    1400 MOH     0.1166 ****
8704 HC2   -23.331879    3.810508   17.612474 H    1400 MOH     0.0372 ****
8705 HC3   -23.915580    2.649450   18.766472 H    1400 MOH     0.0372 ****
8706 O1    -22.517238    3.999935   19.544290 O    1400 MOH    -0.6497 ****
8707 HO1   -21.906401    3.259373   19.557018 H    1400 MOH     0.4215 ****
8708 HC1   -28.682761    5.721518    9.649745 H    1401 MOH     0.0372 ****
8709 C1    -27.755537    5.544747   10.193510 C    1401 MOH     0.1166 ****
8710 HC2   -27.821355    4.620064   10.766973 H    1401 MOH     0.0372 ****
8711 HC3   -27.532102    6.381247   10.856069 H    1401 MOH     0.0372 ****
8712 O1    -26.752102    5.442685    9.262957 O    1401 MOH    -0.6497 ****
8713 HO1   -25.942080    5.783572    9.649745 H    1401 MOH     0.4215 ****
8714 HC1   -30.779698    5.865630    4.376849 H    1402 MOH     0.0372 ****
8715 C1    -30.499683    4.957277    4.910715 C    1402 MOH     0.1166 ****
8716 HC2   -29.691392    4.461664    4.373314 H    1402 MOH     0.0372 ****
8717 HC3   -31.330490    4.251416    4.934049 H    1402 MOH     0.0372 ****
8718 O1    -30.062051    5.218556    6.230176 O    1402 MOH    -0.6497 ****
8719 HO1   -30.409616    4.513920    6.781719 H    1402 MOH     0.4215 ****
8720 HC1   -19.595846    5.337765   17.780058 H    1403 MOH     0.0372 ****
8721 C1    -20.427230    6.021173   17.610353 C    1403 MOH     0.1166 ****
8722 HC2   -21.349258    5.561077   17.967442 H    1403 MOH     0.0372 ****
8723 HC3   -20.497667    6.209375   16.539086 H    1403 MOH     0.0372 ****
8724 O1    -20.099295    7.241835   18.262305 O    1403 MOH    -0.6497 ****
8725 HO1   -19.486149    7.044651   18.974362 H    1403 MOH     0.4215 ****
8726 HC1   -19.836023    8.164068   13.802583 H    1404 MOH     0.0372 ****
8727 C1    -20.845809    7.843185   13.546610 C    1404 MOH     0.1166 ****
8728 HC2   -21.543248    8.273887   14.265738 H    1404 MOH     0.0372 ****
8729 HC3   -20.927215    6.756836   13.581258 H    1404 MOH     0.0372 ****
8730 O1    -21.200879    8.302464   12.274525 O    1404 MOH    -0.6497 ****
8731 HO1   -20.602167    7.895032   11.645200 H    1404 MOH     0.4215 ****
8732 HC1   -26.345648   -4.621860   16.217352 H    1405 MOH     0.0372 ****
8733 C1    -25.764256   -3.864560   16.744147 C    1405 MOH     0.1166 ****
8734 HC2   -24.710592   -4.108692   16.606968 H    1405 MOH     0.0372 ****
8735 HC3   -25.994041   -3.853945   17.809050 H    1405 MOH     0.0372 ****
8736 O1    -25.892428   -2.604297   16.191897 O    1405 MOH    -0.6497 ****
8737 HO1   -25.093952   -2.127872   16.433020 H    1405 MOH     0.4215 ****
8738 HC1   -31.190194    6.735199   21.299329 H    1406 MOH     0.0372 ****
8739 C1    -30.844938    5.892166   20.701823 C    1406 MOH     0.1166 ****
8740 HC2   -30.104775    5.360219   21.300743 H    1406 MOH     0.0372 ****
8741 HC3   -30.403265    6.277961   19.783292 H    1406 MOH     0.0372 ****
8742 O1    -31.897448    4.974424   20.368069 O    1406 MOH    -0.6497 ****
8743 HO1   -31.618588    4.461256   19.606515 H    1406 MOH     0.4215 ****
8744 HC1   -24.032782   15.272487   15.076789 H    1407 MOH     0.0372 ****
8745 C1    -24.525262   15.708904   14.207755 C    1407 MOH     0.1166 ****
8746 HC2   -25.467498   16.196353   14.458071 H    1407 MOH     0.0372 ****
8747 HC3   -24.777564   14.874445   13.552974 H    1407 MOH     0.0372 ****
8748 O1    -23.687527   16.633995   13.507719 O    1407 MOH    -0.6497 ****
8749 HO1   -24.228504   17.333733   13.135781 H    1407 MOH     0.4215 ****
8750 HC1   -26.125100   -4.944377   11.554690 H    1408 MOH     0.0372 ****
8751 C1    -26.158009   -3.859253   11.455695 C    1408 MOH     0.1166 ****
8752 HC2   -25.712872   -3.390175   12.333215 H    1408 MOH     0.0372 ****
8753 HC3   -27.195507   -3.533471   11.380742 H    1408 MOH     0.0372 ****
8754 O1    -25.472117   -3.482031   10.290383 O    1408 MOH    -0.6497 ****
8755 HO1   -25.370503   -2.528771   10.330688 H    1408 MOH     0.4215 ****
8756 HC1   -17.691744    3.872562   12.737680 H    1409 MOH     0.0372 ****
8757 C1    -18.597607    4.197119   12.226442 C    1409 MOH     0.1166 ****
8758 HC2   -19.483262    3.804384   12.725659 H    1409 MOH     0.0372 ****
8759 HC3   -18.590101    3.848883   11.193359 H    1409 MOH     0.0372 ****
8760 O1    -18.690560    5.589246   12.240584 O    1409 MOH    -0.6497 ****
8761 HO1   -18.420360    5.874611   13.116689 H    1409 MOH     0.4215 ****
8762 HC1   -25.157461    8.436369   14.722529 H    1410 MOH     0.0372 ****
8763 C1    -24.494085    7.614566   14.991936 C    1410 MOH     0.1166 ****
8764 HC2   -23.477949    8.000768   15.069718 H    1410 MOH     0.0372 ****
8765 HC3   -24.507942    6.831954   14.233211 H    1410 MOH     0.0372 ****
8766 O1    -24.872250    7.187538   16.278871 O    1410 MOH    -0.6497 ****
8767 HO1   -24.818556    7.956678   16.850213 H    1410 MOH     0.4215 ****
8768 HC1   -21.377549   14.635620   18.825869 H    1411 MOH     0.0372 ****
8769 C1    -21.717031   13.889750   18.106742 C    1411 MOH     0.1166 ****
8770 HC2   -22.223367   13.052433   18.588281 H    1411 MOH     0.0372 ****
8771 HC3   -20.830221   13.492933   17.611767 H    1411 MOH     0.0372 ****
8772 O1    -22.558230   14.510287   17.152147 O    1411 MOH    -0.6497 ****
8773 HO1   -22.028800   15.195328   16.736369 H    1411 MOH     0.4215 ****
8774 HC1   -28.008994   12.131833   12.988703 H    1412 MOH     0.0372 ****
8775 C1    -27.352546   12.407400   13.813896 C    1412 MOH     0.1166 ****
8776 HC2   -27.899297   12.371475   14.757177 H    1412 MOH     0.0372 ****
8777 HC3   -27.006136   13.430062   13.663283 H    1412 MOH     0.0372 ****
8778 O1    -26.233642   11.535382   13.878950 O    1412 MOH    -0.6497 ****
8779 HO1   -25.628579   11.861981   14.549287 H    1412 MOH     0.4215 ****
8780 HC1   -29.395212   13.770950   19.548532 H    1413 MOH     0.0372 ****
8781 C1    -28.813243   14.013449   18.658992 C    1413 MOH     0.1166 ****
8782 HC2   -28.849616   13.191645   17.944107 H    1413 MOH     0.0372 ****
8783 HC3   -27.786137   14.156744   18.996282 H    1413 MOH     0.0372 ****
8784 O1    -29.279164   15.257790   18.127248 O    1413 MOH    -0.6497 ****
8785 HO1   -28.863472   15.935074   18.665356 H    1413 MOH     0.4215 ****
8786 HC1   -29.991614   -0.174812    6.841824 H    1414 MOH     0.0372 ****
8787 C1    -30.728313    0.170974    7.566608 C    1414 MOH     0.1166 ****
8788 HC2   -30.999091   -0.636949    8.247552 H    1414 MOH     0.0372 ****
8789 HC3   -31.637063    0.470629    7.046177 H    1414 MOH     0.0372 ****
8790 O1    -30.288373    1.252424    8.360689 O    1414 MOH    -0.6497 ****
8791 HO1   -29.340941    1.183838    8.496453 H    1414 MOH     0.4215 ****
8792 HC1   -29.043028   16.380473    7.193963 H    1415 MOH     0.0372 ****
8793 C1    -29.890578   15.715845    7.363668 C    1415 MOH     0.1166 ****
8794 HC2   -30.756026   16.359652    7.519939 H    1415 MOH     0.0372 ****
8795 HC3   -29.657906   15.114087    8.241895 H    1415 MOH     0.0372 ****
8796 O1    -30.023946   15.014066    6.148152 O    1415 MOH    -0.6497 ****
8797 HO1   -29.178128   14.608267    5.943091 H    1415 MOH     0.4215 ****
8798 HC1   -31.154398   -2.425485   12.604037 H    1416 MOH     0.0372 ****
8799 C1    -30.119209   -2.121340   12.447766 C    1416 MOH     0.1166 ****
8800 HC2   -29.530312   -3.023977   12.280182 H    1416 MOH     0.0372 ****
8801 HC3   -29.746241   -1.564489   13.306194 H    1416 MOH     0.0372 ****
8802 O1    -30.121518   -1.389759   11.271140 O    1416 MOH    -0.6497 ****
8803 HO1   -29.484124   -0.680631   11.380742 H    1416 MOH     0.4215 ****
8804 HC1   -18.091848    2.766617   17.174775 H    1417 MOH     0.0372 ****
8805 C1    -17.707910    3.363476   16.347460 C    1417 MOH     0.1166 ****
8806 HC2   -17.020286    2.746205   15.769047 H    1417 MOH     0.0372 ****
8807 HC3   -17.206770    4.225288   16.789402 H    1417 MOH     0.0372 ****
8808 O1    -18.773122    3.803160   15.560450 O    1417 MOH    -0.6497 ****
8809 HO1   -19.302552    3.047084   15.298821 H    1417 MOH     0.4215 ****
8810 HC1   -27.625633   11.762776   21.775212 H    1418 MOH     0.0372 ****
8811 C1    -27.562125   10.839727   21.198920 C    1418 MOH     0.1166 ****
8812 HC2   -26.530400   10.635603   20.913248 H    1418 MOH     0.0372 ****
8813 HC3   -28.179312   10.951587   20.307965 H    1418 MOH     0.0372 ****
8814 O1    -28.080008    9.786447   21.964009 O    1418 MOH    -0.6497 ****
8815 HO1   -27.830015    8.961785   21.539745 H    1418 MOH     0.4215 ****
8816 HC1   -18.199813    8.223264   15.910468 H    1419 MOH     0.0372 ****
8817 C1    -17.559531    7.347979   16.019362 C    1419 MOH     0.1166 ****
8818 HC2   -17.709642    6.947080   17.022040 H    1419 MOH     0.0372 ****
8819 HC3   -16.520878    7.660698   15.913296 H    1419 MOH     0.0372 ****
8820 O1    -17.938850    6.406151   15.015978 O    1419 MOH    -0.6497 ****
8821 HO1   -18.009864    5.532908   15.408422 H    1419 MOH     0.4215 ****
8822 HC1   -20.064077   10.436786   20.331300 H    1420 MOH     0.0372 ****
8823 C1    -19.205557   10.798494   19.765614 C    1420 MOH     0.1166 ****
8824 HC2   -19.553699   11.317786   18.873245 H    1420 MOH     0.0372 ****
8825 HC3   -18.576245    9.957911   19.472165 H    1420 MOH     0.0372 ****
8826 O1    -18.456156   11.688067   20.561109 O    1420 MOH    -0.6497 ****
8827 HO1   -18.288725   11.269613   21.408930 H    1420 MOH     0.4215 ****
8828 HC1   -19.265024   11.757877   10.399278 H    1421 MOH     0.0372 ****
8829 C1    -19.711893   12.171841    9.495595 C    1421 MOH     0.1166 ****
8830 HC2   -20.739576   12.490683    9.667422 H    1421 MOH     0.0372 ****
8831 HC3   -19.681293   11.399435    8.726263 H    1421 MOH     0.0372 ****
8832 O1    -18.901293   13.236144    9.107394 O    1421 MOH    -0.6497 ****
8833 HO1   -18.719428   13.782381    9.875312 H    1421 MOH     0.4215 ****
8834 HC1   -26.039075    9.505572    4.993446 H    1422 MOH     0.0372 ****
8835 C1    -26.963412   10.020781    4.731817 C    1422 MOH     0.1166 ****
8836 HC2   -27.676440    9.973832    5.555596 H    1422 MOH     0.0372 ****
8837 HC3   -27.399312    9.574566    3.838741 H    1422 MOH     0.0372 ****
8838 O1    -26.725544   11.370042    4.452510 O    1422 MOH    -0.6497 ****
8839 HO1   -26.220940   11.400252    3.636508 H    1422 MOH     0.4215 ****
8840 HC1   -26.391258   -6.497761   14.717579 H    1423 MOH     0.0372 ****
8841 C1    -25.553523   -6.269551   14.057848 C    1423 MOH     0.1166 ****
8842 HC2   -25.196143   -5.268117   14.293315 H    1423 MOH     0.0372 ****
8843 HC3   -25.903975   -6.314458   13.026887 H    1423 MOH     0.0372 ****
8844 O1    -24.472723   -7.211379   14.262202 O    1423 MOH    -0.6497 ****
8845 HO1   -23.639607   -6.823135   13.984309 H    1423 MOH     0.4215 ****
8846 HC1   -25.501562   12.371066   21.830366 H    1424 MOH     0.0372 ****
8847 C1    -24.576069   12.670721   22.323926 C    1424 MOH     0.1166 ****
8848 HC2   -24.132087   11.816665   22.835872 H    1424 MOH     0.0372 ****
8849 HC3   -24.822020   13.422714   23.073460 H    1424 MOH     0.0372 ****
8850 O1    -23.693878   13.170008   21.297915 O    1424 MOH    -0.6497 ****
8851 HO1   -23.884403   14.108163   21.222961 H    1424 MOH     0.4215 ****
8852 HC1   -27.084656   16.240035   17.178310 H    1425 MOH     0.0372 ****
8853 C1    -26.138956   16.582964   17.598332 C    1425 MOH     0.1166 ****
8854 HC2   -26.252694   17.557453   18.074215 H    1425 MOH     0.0372 ****
8855 HC3   -25.409186   16.696457   16.796473 H    1425 MOH     0.0372 ****
8856 O1    -25.697283   15.660731   18.570604 O    1425 MOH    -0.6497 ****
8857 HO1   -24.865899   15.272487   18.288468 H    1425 MOH     0.4215 ****
8858 HC1   -27.166640    8.174274   12.249069 H    1426 MOH     0.0372 ****
8859 C1    -26.384907    8.847475   11.897637 C    1426 MOH     0.1166 ****
8860 HC2   -25.825455    8.412691   11.069615 H    1426 MOH     0.0372 ****
8861 HC3   -25.699593    9.052416   12.719295 H    1426 MOH     0.0372 ****
8862 O1    -26.958794   10.046909   11.452160 O    1426 MOH    -0.6497 ****
8863 HO1   -26.763649   10.690308   12.138053 H    1426 MOH     0.4215 ****
8864 HC1   -15.659010   21.613236   21.118309 H    1427 MOH     0.0372 ****
8865 C1    -15.597811   22.392990   21.876328 C    1427 MOH     0.1166 ****
8866 HC2   -15.237544   21.947183   22.804052 H    1427 MOH     0.0372 ****
8867 HC3   -16.590853   22.818385   22.021992 H    1427 MOH     0.0372 ****
8868 O1    -14.726589   23.415652   21.448528 O    1427 MOH    -0.6497 ****
8869 HO1   -13.839779   23.055577   21.382060 H    1427 MOH     0.4215 ****
8870 HC1    -9.400533   26.362389   15.337712 H    1428 MOH     0.0372 ****
8871 C1     -8.966943   26.555490   16.318469 C    1428 MOH     0.1166 ****
8872 HC2    -8.681154   27.606321   16.369380 H    1428 MOH     0.0372 ****
8873 HC3    -8.078978   25.936177   16.445041 H    1428 MOH     0.0372 ****
8874 O1     -9.921303   26.240731   17.326096 O    1428 MOH    -0.6497 ****
8875 HO1    -9.720385   25.349116   17.618838 H    1428 MOH     0.4215 ****
8876 HC1   -16.037751   15.508699    7.705201 H    1429 MOH     0.0372 ****
8877 C1    -16.224813   14.522780    8.130172 C    1429 MOH     0.1166 ****
8878 HC2   -16.616834   14.617493    9.142749 H    1429 MOH     0.0372 ****
8879 HC3   -15.267566   14.006346    8.198761 H    1429 MOH     0.0372 ****
8880 O1    -17.066012   13.718939    7.280937 O    1429 MOH    -0.6497 ****
8881 HO1   -17.781926   13.372744    7.818338 H    1429 MOH     0.4215 ****
8882 HC1   -13.407344   15.980634   14.342105 H    1430 MOH     0.0372 ****
8883 C1    -14.256048   16.415419   14.870314 C    1430 MOH     0.1166 ****
8884 HC2   -14.392303   17.442572   14.532317 H    1430 MOH     0.0372 ****
8885 HC3   -14.091504   16.403171   15.947945 H    1430 MOH     0.0372 ****
8886 O1    -15.421719   15.717314   14.536560 O    1430 MOH    -0.6497 ****
8887 HO1   -15.394583   14.916739   15.066183 H    1430 MOH     0.4215 ****
8888 HC1    -5.330791   24.751032   10.722426 H    1431 MOH     0.0372 ****
8889 C1     -5.525358   25.492411   11.497415 C    1431 MOH     0.1166 ****
8890 HC2    -6.589414   25.534461   11.730053 H    1431 MOH     0.0372 ****
8891 HC3    -5.223981   26.480780   11.150225 H    1431 MOH     0.0372 ****
8892 O1     -4.855631   25.162139   12.708689 O    1431 MOH    -0.6497 ****
8893 HO1    -5.073292   24.267667   12.980925 H    1431 MOH     0.4215 ****
8894 HC1   -14.512969   23.056394    4.728281 H    1432 MOH     0.0372 ****
8895 C1    -15.305094   22.524038    5.254369 C    1432 MOH     0.1166 ****
8896 HC2   -15.277958   22.781643    6.312908 H    1432 MOH     0.0372 ****
8897 HC3   -15.139394   21.456469    5.112240 H    1432 MOH     0.0372 ****
8898 O1    -16.533695   22.939635    4.698583 O    1432 MOH    -0.6497 ****
8899 HO1   -17.228248   22.580785    5.256490 H    1432 MOH     0.4215 ****
8900 HC1   -10.447846   29.115207   12.251190 H    1433 MOH     0.0372 ****
8901 C1    -10.399349   28.027633   12.200279 C    1433 MOH     0.1166 ****
8902 HC2   -10.777513   27.672865   11.242149 H    1433 MOH     0.0372 ****
8903 HC3   -11.006144   27.581010   12.987996 H    1433 MOH     0.0372 ****
8904 O1     -9.062783   27.593257   12.273818 O    1433 MOH    -0.6497 ****
8905 HO1    -9.095114   26.633874   12.295031 H    1433 MOH     0.4215 ****
8906 HC1   -11.250940   23.533636    5.173052 H    1434 MOH     0.0372 ****
8907 C1    -11.052332   24.494244    5.647520 C    1434 MOH     0.1166 ****
8908 HC2    -9.987698   24.711432    5.564082 H    1434 MOH     0.0372 ****
8909 HC3   -11.281540   24.459135    6.712423 H    1434 MOH     0.0372 ****
8910 O1    -11.845611   25.489962    4.996275 O    1434 MOH    -0.6497 ****
8911 HO1   -11.798268   26.266042    5.559839 H    1434 MOH     0.4215 ****
8912 HC1   -25.676037   22.246837   13.618735 H    1435 MOH     0.0372 ****
8913 C1    -24.761514   22.553024   13.111032 C    1435 MOH     0.1166 ****
8914 HC2   -24.166266   23.207446   13.748135 H    1435 MOH     0.0372 ****
8915 HC3   -25.036910   23.099260   12.208764 H    1435 MOH     0.0372 ****
8916 O1    -24.059456   21.413603   12.712931 O    1435 MOH    -0.6497 ****
8917 HO1   -23.124726   21.612420   12.802734 H    1435 MOH     0.4215 ****
8918 HC1   -12.409682   18.066375   10.185024 H    1436 MOH     0.0372 ****
8919 C1    -12.362340   18.789791   10.999611 C    1436 MOH     0.1166 ****
8920 HC2   -13.155619   19.517289   10.828492 H    1436 MOH     0.0372 ****
8921 HC3   -11.401629   19.303367   10.952942 H    1436 MOH     0.0372 ****
8922 O1    -12.547669   18.148025   12.293617 O    1436 MOH    -0.6497 ****
8923 HO1   -12.739349   18.823676   12.949105 H    1436 MOH     0.4215 ****
8924 HC1    -5.651797   26.780843   14.504033 H    1437 MOH     0.0372 ****
8925 C1     -5.569236   27.720631   15.049919 C    1437 MOH     0.1166 ****
8926 HC2    -6.396002   28.376277   14.776976 H    1437 MOH     0.0372 ****
8927 HC3    -4.611990   28.182768   14.805260 H    1437 MOH     0.0372 ****
8928 O1     -5.610228   27.362597   16.391301 O    1437 MOH    -0.6497 ****
8929 HO1    -5.386216   28.105609   16.955572 H    1437 MOH     0.4215 ****
8930 HC1   -17.669921   20.751016   23.197203 H    1438 MOH     0.0372 ****
8931 C1    -17.370276   19.703859   23.182354 C    1438 MOH     0.1166 ****
8932 HC2   -16.736345   19.515248   22.315441 H    1438 MOH     0.0372 ****
8933 HC3   -18.238033   19.049845   23.103158 H    1438 MOH     0.0372 ****
8934 O1    -16.665331   19.392774   24.375950 O    1438 MOH    -0.6497 ****
8935 HO1   -16.231164   18.544434   24.257156 H    1438 MOH     0.4215 ****
8936 HC1   -26.977384   17.246612    4.840711 H    1439 MOH     0.0372 ****
8937 C1    -26.564579   18.254169    4.803942 C    1439 MOH     0.1166 ****
8938 HC2   -26.650027   18.724879    5.783285 H    1439 MOH     0.0372 ****
8939 HC3   -27.141352   18.842047    4.089764 H    1439 MOH     0.0372 ****
8940 O1    -25.225126   18.198647    4.372607 O    1439 MOH    -0.6497 ****
8941 HO1   -25.191640   17.538102    3.676813 H    1439 MOH     0.4215 ****
8942 HC1   -10.864116   15.403371   10.789601 H    1440 MOH     0.0372 ****
8943 C1    -11.544234   14.834682   11.423876 C    1440 MOH     0.1166 ****
8944 HC2   -11.189741   14.871832   12.454130 H    1440 MOH     0.0372 ****
8945 HC3   -11.599082   13.798139   11.092242 H    1440 MOH     0.0372 ****
8946 O1    -12.776877   15.457668   11.341851 O    1440 MOH    -0.6497 ****
8947 HO1   -12.674686   16.350507   11.677727 H    1440 MOH     0.4215 ****
8948 HC1   -16.996153   21.866758   15.773289 H    1441 MOH     0.0372 ****
8949 C1    -17.136449   21.712440   14.704144 C    1441 MOH     0.1166 ****
8950 HC2   -17.332748   22.666925   14.214826 H    1441 MOH     0.0372 ****
8951 HC3   -17.970720   21.033524   14.528074 H    1441 MOH     0.0372 ****
8952 O1    -15.960964   21.158039   14.152601 O    1441 MOH    -0.6497 ****
8953 HO1   -15.314332   21.057202   14.854758 H    1441 MOH     0.4215 ****
8954 HC1   -19.539958   21.660593    8.404529 H    1442 MOH     0.0372 ****
8955 C1    -19.701039   20.647729    8.772932 C    1442 MOH     0.1166 ****
8956 HC2   -20.452171   20.692636    9.560649 H    1442 MOH     0.0372 ****
8957 HC3   -18.776124   20.247237    9.188004 H    1442 MOH     0.0372 ****
8958 O1    -20.152527   19.801022    7.716515 O    1442 MOH    -0.6497 ****
8959 HO1   -19.747804   18.942884    7.866421 H    1442 MOH     0.4215 ****
8960 HC1   -10.534449   15.777735   16.018655 H    1443 MOH     0.0372 ****
8961 C1    -10.700726   15.864692   17.092751 C    1443 MOH     0.1166 ****
8962 HC2   -10.628557   16.920830   17.352259 H    1443 MOH     0.0372 ****
8963 HC3    -9.913797   15.310699   17.605403 H    1443 MOH     0.0372 ****
8964 O1    -12.026322   15.345808   17.326803 O    1443 MOH    -0.6497 ****
8965 HO1   -12.337514   15.694452   18.165432 H    1443 MOH     0.4215 ****
8966 HC1   -10.940903   21.915748   14.837080 H    1444 MOH     0.0372 ****
8967 C1    -10.957646   20.908600   14.419180 C    1444 MOH     0.1166 ****
8968 HC2   -10.455929   20.250095   15.126994 H    1444 MOH     0.0372 ****
8969 HC3   -10.406277   20.880022   13.478728 H    1444 MOH     0.0372 ****
8970 O1    -12.300563   20.472999   14.269980 O    1444 MOH    -0.6497 ****
8971 HO1   -12.792466   20.733869   15.052747 H    1444 MOH     0.4215 ****
8972 HC1   -17.325820   17.378477   16.375744 H    1445 MOH     0.0372 ****
8973 C1    -17.511727   17.964313   15.475597 C    1445 MOH     0.1166 ****
8974 HC2   -17.493829   17.340510   14.581814 H    1445 MOH     0.0372 ****
8975 HC3   -16.764058   18.749783   15.366703 H    1445 MOH     0.0372 ****
8976 O1    -18.754184   18.552599   15.604998 O    1445 MOH    -0.6497 ****
8977 HO1   -19.052674   18.663234   14.699194 H    1445 MOH     0.4215 ****
8978 HC1   -16.141097   20.953507   17.794908 H    1446 MOH     0.0372 ****
8979 C1    -15.387078   20.199881   17.567219 C    1446 MOH     0.1166 ****
8980 HC2   -15.873207   19.310308   17.167704 H    1446 MOH     0.0372 ****
8981 HC3   -14.898062   19.910433   18.497065 H    1446 MOH     0.0372 ****
8982 O1    -14.452925   20.742034   16.622525 O    1446 MOH    -0.6497 ****
8983 HO1   -14.236419   21.639772   16.882033 H    1446 MOH     0.4215 ****
8984 HC1   -20.204488   14.323963   15.060526 H    1447 MOH     0.0372 ****
8985 C1    -20.611520   15.324579   14.915569 C    1447 MOH     0.1166 ****
8986 HC2   -21.657102   15.278856   14.610099 H    1447 MOH     0.0372 ****
8987 HC3   -20.054955   15.782226   14.098860 H    1447 MOH     0.0372 ****
8988 O1    -20.456790   16.148425   16.072395 O    1447 MOH    -0.6497 ****
8989 HO1   -20.173889   17.028608   15.812180 H    1447 MOH     0.4215 ****
8990 HC1   -20.798582   18.729370   17.282962 H    1448 MOH     0.0372 ****
8991 C1    -20.710247   19.715290   17.739046 C    1448 MOH     0.1166 ****
8992 HC2   -21.311269   19.747133   18.646971 H    1448 MOH     0.0372 ****
8993 HC3   -21.062431   20.450545   17.015676 H    1448 MOH     0.0372 ****
8994 O1    -19.370217   19.919006   18.046638 O    1448 MOH    -0.6497 ****
8995 HO1   -18.885243   19.452378   17.362865 H    1448 MOH     0.4215 ****
8996 HC1   -18.835013   13.892036   18.096842 H    1449 MOH     0.0372 ****
8997 C1    -17.758833   13.900201   17.927137 C    1449 MOH     0.1166 ****
8998 HC2   -17.338522   14.760380   18.446860 H    1449 MOH     0.0372 ****
8999 HC3   -17.555028   13.960622   16.857991 H    1449 MOH     0.0372 ****
9000 O1    -17.165316   12.755473   18.427768 O    1449 MOH    -0.6497 ****
9001 HO1   -17.627197   12.494194   19.226799 H    1449 MOH     0.4215 ****
9002 HC1   -23.019648   25.545484   14.966480 H    1450 MOH     0.0372 ****
9003 C1    -21.987923   25.261751   14.760712 C    1450 MOH     0.1166 ****
9004 HC2   -21.717146   24.435865   15.417614 H    1450 MOH     0.0372 ****
9005 HC3   -21.339559   26.112541   14.971430 H    1450 MOH     0.0372 ****
9006 O1    -21.849937   24.942501   13.398825 O    1450 MOH    -0.6497 ****
9007 HO1   -22.146695   25.735319   12.946276 H    1450 MOH     0.4215 ****
9008 HC1   -17.525583   24.817985    9.279928 H    1451 MOH     0.0372 ****
9009 C1    -17.511149   25.525479    8.450491 C    1451 MOH     0.1166 ****
9010 HC2   -18.501882   25.956590    8.309070 H    1451 MOH     0.0372 ****
9011 HC3   -17.172245   25.032316    7.539738 H    1451 MOH     0.0372 ****
9012 O1    -16.634154   26.577127    8.757376 O    1451 MOH    -0.6497 ****
9013 HO1   -16.437855   26.584067    9.697121 H    1451 MOH     0.4215 ****
9014 HC1   -11.394123   20.983309   22.609598 H    1452 MOH     0.0372 ****
9015 C1    -11.319068   22.025159   22.299885 C    1452 MOH     0.1166 ****
9016 HC2   -10.280415   22.249695   22.056640 H    1452 MOH     0.0372 ****
9017 HC3   -11.681066   22.626508   23.134978 H    1452 MOH     0.0372 ****
9018 O1    -12.207032   22.182743   21.223668 O    1452 MOH    -0.6497 ****
9019 HO1   -11.839838   21.662226   20.505955 H    1452 MOH     0.4215 ****
9020 HC1   -21.669226   17.070657   23.158312 H    1453 MOH     0.0372 ****
9021 C1    -20.676761   17.091478   22.707885 C    1453 MOH     0.1166 ****
9022 HC2   -20.153682   18.002688   22.997799 H    1453 MOH     0.0372 ****
9023 HC3   -20.736805   17.035956   21.621769 H    1453 MOH     0.0372 ****
9024 O1    -19.941794   16.026767   23.156191 O    1453 MOH    -0.6497 ****
9025 HO1   -20.388663   15.230682   22.860621 H    1453 MOH     0.4215 ****
9026 HC1   -26.322669   21.361755    7.063855 H    1454 MOH     0.0372 ****
9027 C1    -25.534586   21.396048    6.311493 C    1454 MOH     0.1166 ****
9028 HC2   -25.954897   21.787558    5.384476 H    1454 MOH     0.0372 ****
9029 HC3   -25.136792   20.398289    6.124817 H    1454 MOH     0.0372 ****
9030 O1    -24.528264   22.296235    6.661511 O    1454 MOH    -0.6497 ****
9031 HO1   -23.700921   21.831241    6.517969 H    1454 MOH     0.4215 ****
9032 HC1   -23.118952   20.741218    4.345736 H    1455 MOH     0.0372 ****
9033 C1    -22.688826   20.171303    5.170223 C    1455 MOH     0.1166 ****
9034 HC2   -21.913445   19.527496    4.755151 H    1455 MOH     0.0372 ****
9035 HC3   -23.434186   19.522597    5.630550 H    1455 MOH     0.0372 ****
9036 O1    -22.119559   21.065775    6.109968 O    1455 MOH    -0.6497 ****
9037 HO1   -21.705022   20.526479    6.786669 H    1455 MOH     0.4215 ****
9038 HC1   -12.055767   23.779402   11.290939 H    1456 MOH     0.0372 ****
9039 C1    -12.095026   22.709791   11.085878 C    1456 MOH     0.1166 ****
9040 HC2   -12.873295   22.281539   11.717325 H    1456 MOH     0.0372 ****
9041 HC3   -11.126233   22.273374   11.329830 H    1456 MOH     0.0372 ****
9042 O1    -12.383701   22.417893    9.717627 O    1456 MOH    -0.6497 ****
9043 HO1   -11.954153   21.603438    9.445391 H    1456 MOH     0.4215 ****
9044 HC1    -7.894226   22.459535    9.044461 H    1457 MOH     0.0372 ****
9045 C1     -8.416728   23.388708    9.272150 C    1457 MOH     0.1166 ****
9046 HC2    -9.449030   23.175602    9.550750 H    1457 MOH     0.0372 ****
9047 HC3    -8.376313   24.034965    8.396044 H    1457 MOH     0.0372 ****
9048 O1     -7.729104   23.952091   10.338467 O    1457 MOH    -0.6497 ****
9049 HO1    -7.266646   23.236840   10.781115 H    1457 MOH     0.4215 ****
9050 HC1   -14.493917   17.673640   18.684448 H    1458 MOH     0.0372 ****
9051 C1    -14.242769   17.153124   19.608636 C    1458 MOH     0.1166 ****
9052 HC2   -14.909609   16.299476   19.729552 H    1458 MOH     0.0372 ****
9053 HC3   -14.365745   17.823059   20.459286 H    1458 MOH     0.0372 ****
9054 O1    -12.902739   16.722422   19.511763 O    1458 MOH    -0.6497 ****
9055 HO1   -12.712791   16.166796   20.270488 H    1458 MOH     0.4215 ****
9056 HC1   -13.021096   24.604063    8.663331 H    1459 MOH     0.0372 ****
9057 C1    -13.958136   24.860035    8.170477 C    1459 MOH     0.1166 ****
9058 HC2   -14.796448   24.528129    8.783539 H    1459 MOH     0.0372 ****
9059 HC3   -13.976611   24.361155    7.201741 H    1459 MOH     0.0372 ****
9060 O1    -13.988735   26.243588    7.953395 O    1459 MOH    -0.6497 ****
9061 HO1   -14.904990   26.484863    7.801367 H    1459 MOH     0.4215 ****
9062 HC1   -16.350675   19.894103    6.955668 H    1460 MOH     0.0372 ****
9063 C1    -16.045257   18.913898    6.588679 C    1460 MOH     0.1166 ****
9064 HC2   -15.096093   18.993507    6.059056 H    1460 MOH     0.0372 ****
9065 HC3   -16.811978   18.521572    5.921878 H    1460 MOH     0.0372 ****
9066 O1    -15.891682   17.993299    7.662774 O    1460 MOH    -0.6497 ****
9067 HO1   -15.042399   17.559331    7.554587 H    1460 MOH     0.4215 ****
9068 HC1   -10.509623   17.245796   13.628634 H    1461 MOH     0.0372 ****
9069 C1     -9.638401   17.749166   13.209320 C    1461 MOH     0.1166 ****
9070 HC2    -9.936314   18.698343   12.765964 H    1461 MOH     0.0372 ****
9071 HC3    -9.199615   17.137610   12.420189 H    1461 MOH     0.0372 ****
9072 O1     -8.669607   18.024325   14.195027 O    1461 MOH    -0.6497 ****
9073 HO1    -8.239481   17.186192   14.378168 H    1461 MOH     0.4215 ****
9074 HC1   -19.064799   23.569562    1.880762 H    1462 MOH     0.0372 ****
9075 C1    -18.141038   23.757764    1.332755 C    1462 MOH     0.1166 ****
9076 HC2   -17.550409   22.842880    1.370231 H    1462 MOH     0.0372 ****
9077 HC3   -17.618536   24.581201    1.819951 H    1462 MOH     0.0372 ****
9078 O1    -18.414125   24.110083   -0.021355 O    1462 MOH    -0.6497 ****
9079 HO1   -17.632393   24.532211   -0.384808 H    1462 MOH     0.4215 ****
9080 HC1   -21.478123   18.831432   12.791420 H    1463 MOH     0.0372 ****
9081 C1    -20.621335   18.573419   12.167752 C    1463 MOH     0.1166 ****
9082 HC2   -20.435428   19.366646   11.444382 H    1463 MOH     0.0372 ****
9083 HC3   -20.867286   17.669558   11.610552 H    1463 MOH     0.0372 ****
9084 O1    -19.457974   18.382767   12.968904 O    1463 MOH    -0.6497 ****
9085 HO1   -18.761690   18.034940   12.407461 H    1463 MOH     0.4215 ****
9086 HC1   -15.423451   18.491361   11.974712 H    1464 MOH     0.0372 ****
9087 C1    -15.921704   17.715690   11.394884 C    1464 MOH     0.1166 ****
9088 HC2   -15.194820   16.970228   11.072443 H    1464 MOH     0.0372 ****
9089 HC3   -16.384162   18.189666   10.528678 H    1464 MOH     0.0372 ****
9090 O1    -16.896849   17.084946   12.191793 O    1464 MOH    -0.6497 ****
9091 HO1   -16.425153   16.715890   12.941327 H    1464 MOH     0.4215 ****
9092 HC1   -12.082902   24.543234   19.161745 H    1465 MOH     0.0372 ****
9093 C1    -12.705286   25.437706   19.152553 C    1465 MOH     0.1166 ****
9094 HC2   -12.261303   26.224809   19.762079 H    1465 MOH     0.0372 ****
9095 HC3   -13.676966   25.159689   19.561967 H    1465 MOH     0.0372 ****
9096 O1    -12.884842   25.890454   17.830970 O    1465 MOH    -0.6497 ****
9097 HO1   -12.027476   26.166021   17.497923 H    1465 MOH     0.4215 ****
9098 HC1   -16.454021   24.722863   17.002241 H    1466 MOH     0.0372 ****
9099 C1    -16.000224   25.602230   17.459032 C    1466 MOH     0.1166 ****
9100 HC2   -15.163066   25.919031   16.836778 H    1466 MOH     0.0372 ****
9101 HC3   -15.696537   25.353199   18.475851 H    1466 MOH     0.0372 ****
9102 O1    -16.950542   26.599989   17.423676 O    1466 MOH    -0.6497 ****
9103 HO1   -17.278477   26.655511   16.522822 H    1466 MOH     0.4215 ****
9104 HC1    -9.091073   28.041922   22.379081 H    1467 MOH     0.0372 ****
9105 C1     -9.343952   28.906592   22.992850 C    1467 MOH     0.1166 ****
9106 HC2    -8.536239   29.089895   23.700663 H    1467 MOH     0.0372 ****
9107 HC3   -10.261939   28.673890   23.531665 H    1467 MOH     0.0372 ****
9108 O1     -9.536210   30.014986   22.136543 O    1467 MOH    -0.6497 ****
9109 HO1   -10.221525   29.743909   21.521360 H    1467 MOH     0.4215 ****
9110 HC1   -12.831725   20.782451   18.844961 H    1468 MOH     0.0372 ****
9111 C1    -12.009001   20.091695   18.659699 C    1468 MOH     0.1166 ****
9112 HC2   -11.733605   20.212945   17.612474 H    1468 MOH     0.0372 ****
9113 HC3   -12.317306   19.051886   18.766472 H    1468 MOH     0.0372 ****
9114 O1    -10.918964   20.402372   19.544290 O    1468 MOH    -0.6497 ****
9115 HO1   -10.308127   19.661809   19.557018 H    1468 MOH     0.4215 ****
9116 HC1   -17.084487   22.123955    9.649745 H    1469 MOH     0.0372 ****
9117 C1    -16.157263   21.947183   10.193510 C    1469 MOH     0.1166 ****
9118 HC2   -16.223081   21.022501   10.766973 H    1469 MOH     0.0372 ****
9119 HC3   -15.933828   22.783684   10.856069 H    1469 MOH     0.0372 ****
9120 O1    -15.153828   21.845121    9.262957 O    1469 MOH    -0.6497 ****
9121 HO1   -14.343806   22.186008    9.649745 H    1469 MOH     0.4215 ****
9122 HC1   -19.181424   22.268066    4.376849 H    1470 MOH     0.0372 ****
9123 C1    -18.901409   21.359714    4.910715 C    1470 MOH     0.1166 ****
9124 HC2   -18.093118   20.864100    4.373314 H    1470 MOH     0.0372 ****
9125 HC3   -19.732216   20.653853    4.934049 H    1470 MOH     0.0372 ****
9126 O1    -18.463777   21.620993    6.230176 O    1470 MOH    -0.6497 ****
9127 HO1   -18.811342   20.916356    6.781719 H    1470 MOH     0.4215 ****
9128 HC1    -7.997572   21.740201   17.780058 H    1471 MOH     0.0372 ****
9129 C1     -8.828956   22.423609   17.610353 C    1471 MOH     0.1166 ****
9130 HC2    -9.750984   21.963513   17.967442 H    1471 MOH     0.0372 ****
9131 HC3    -8.899393   22.611811   16.539086 H    1471 MOH     0.0372 ****
9132 O1     -8.501021   23.644271   18.262305 O    1471 MOH    -0.6497 ****
9133 HO1    -7.887875   23.447087   18.974362 H    1471 MOH     0.4215 ****
9134 HC1    -8.237749   24.566504   13.802583 H    1472 MOH     0.0372 ****
9135 C1     -9.247535   24.245621   13.546610 C    1472 MOH     0.1166 ****
9136 HC2    -9.944974   24.676323   14.265738 H    1472 MOH     0.0372 ****
9137 HC3    -9.328941   23.159272   13.581258 H    1472 MOH     0.0372 ****
9138 O1     -9.602605   24.704900   12.274525 O    1472 MOH    -0.6497 ****
9139 HO1    -9.003893   24.297469   11.645200 H    1472 MOH     0.4215 ****
9140 HC1   -14.747374   11.780576   16.217352 H    1473 MOH     0.0372 ****
9141 C1    -14.165982   12.537877   16.744147 C    1473 MOH     0.1166 ****
9142 HC2   -13.112318   12.293744   16.606968 H    1473 MOH     0.0372 ****
9143 HC3   -14.395767   12.548491   17.809050 H    1473 MOH     0.0372 ****
9144 O1    -14.294154   13.798139   16.191897 O    1473 MOH    -0.6497 ****
9145 HO1   -13.495678   14.274565   16.433020 H    1473 MOH     0.4215 ****
9146 HC1   -19.591920   23.137635   21.299329 H    1474 MOH     0.0372 ****
9147 C1    -19.246664   22.294603   20.701823 C    1474 MOH     0.1166 ****
9148 HC2   -18.506501   21.762655   21.300743 H    1474 MOH     0.0372 ****
9149 HC3   -18.804991   22.680397   19.783292 H    1474 MOH     0.0372 ****
9150 O1    -20.299174   21.376860   20.368069 O    1474 MOH    -0.6497 ****
9151 HO1   -20.020314   20.863692   19.606515 H    1474 MOH     0.4215 ****
9152 HC1   -14.526826   11.458060   11.554690 H    1475 MOH     0.0372 ****
9153 C1    -14.559735   12.543184   11.455695 C    1475 MOH     0.1166 ****
9154 HC2   -14.114598   13.012261   12.333215 H    1475 MOH     0.0372 ****
9155 HC3   -15.597233   12.868966   11.380742 H    1475 MOH     0.0372 ****
9156 O1    -13.873843   12.920405   10.290383 O    1475 MOH    -0.6497 ****
9157 HO1   -13.772229   13.873665   10.330688 H    1475 MOH     0.4215 ****
9158 HC1    -6.093470   20.274998   12.737680 H    1476 MOH     0.0372 ****
9159 C1     -6.999333   20.599556   12.226442 C    1476 MOH     0.1166 ****
9160 HC2    -7.884988   20.206821   12.725659 H    1476 MOH     0.0372 ****
9161 HC3    -6.991827   20.251320   11.193359 H    1476 MOH     0.0372 ****
9162 O1     -7.092286   21.991682   12.240584 O    1476 MOH    -0.6497 ****
9163 HO1    -6.822086   22.277048   13.116689 H    1476 MOH     0.4215 ****
9164 HC1   -13.559187   24.838806   14.722529 H    1477 MOH     0.0372 ****
9165 C1    -12.895811   24.017002   14.991936 C    1477 MOH     0.1166 ****
9166 HC2   -11.879675   24.403205   15.069718 H    1477 MOH     0.0372 ****
9167 HC3   -12.909668   23.234390   14.233211 H    1477 MOH     0.0372 ****
9168 O1    -13.273976   23.589974   16.278871 O    1477 MOH    -0.6497 ****
9169 HO1   -13.220282   24.359114   16.850213 H    1477 MOH     0.4215 ****
9170 HC1   -19.072882   23.801855    9.844906 H    1478 MOH     0.0372 ****
9171 C1    -19.703348   23.488321   10.676464 C    1478 MOH     0.1166 ****
9172 HC2   -20.679648   23.175602   10.305940 H    1478 MOH     0.0372 ****
9173 HC3   -19.873667   24.315432   11.366600 H    1478 MOH     0.0372 ****
9174 O1    -19.101172   22.434223   11.372257 O    1478 MOH    -0.6497 ****
9175 HO1   -19.751846   22.079864   11.981783 H    1478 MOH     0.4215 ****
9176 HC1   -27.072647   18.466458   13.041736 H    1479 MOH     0.0372 ****
9177 C1    -26.428902   19.250703   12.645049 C    1479 MOH     0.1166 ****
9178 HC2   -26.394838   20.052095   13.382561 H    1479 MOH     0.0372 ****
9179 HC3   -26.827851   19.690795   11.730053 H    1479 MOH     0.0372 ****
9180 O1    -25.117162   18.786117   12.414532 O    1479 MOH    -0.6497 ****
9181 HO1   -24.674911   19.573219   12.089263 H    1479 MOH     0.4215 ****
9182 HC1   -20.302638   25.607129   17.220030 H    1480 MOH     0.0372 ****
9183 C1    -20.139825   25.383001   18.274326 C    1480 MOH     0.1166 ****
9184 HC2   -19.572290   24.456277   18.366250 H    1480 MOH     0.0372 ****
9185 HC3   -21.123630   25.265425   18.728288 H    1480 MOH     0.0372 ****
9186 O1    -19.447005   26.459552   18.866174 O    1480 MOH    -0.6497 ****
9187 HO1   -18.608692   26.550183   18.407969 H    1480 MOH     0.4215 ****
9188 HC1   -20.580343   25.502209    7.884099 H    1481 MOH     0.0372 ****
9189 C1    -20.713711   24.479547    7.531253 C    1481 MOH     0.1166 ****
9190 HC2   -21.712527   24.401980    7.102746 H    1481 MOH     0.0372 ****
9191 HC3   -20.640388   23.762663    8.348668 H    1481 MOH     0.0372 ****
9192 O1    -19.793415   24.202347    6.519383 O    1481 MOH    -0.6497 ****
9193 HO1   -19.677367   23.254394    6.427459 H    1481 MOH     0.4215 ****
9194 HC1   -18.393340   16.227625    6.841824 H    1482 MOH     0.0372 ****
9195 C1    -19.130039   16.573411    7.566608 C    1482 MOH     0.1166 ****
9196 HC2   -19.400817   15.765488    8.247552 H    1482 MOH     0.0372 ****
9197 HC3   -20.038789   16.873065    7.046177 H    1482 MOH     0.0372 ****
9198 O1    -18.690098   17.654861    8.360689 O    1482 MOH    -0.6497 ****
9199 HO1   -17.742667   17.586275    8.496453 H    1482 MOH     0.4215 ****
9200 HC1   -19.556124   13.976952   12.604037 H    1483 MOH     0.0372 ****
9201 C1    -18.520935   14.281097   12.447766 C    1483 MOH     0.1166 ****
9202 HC2   -17.932038   13.378460   12.280182 H    1483 MOH     0.0372 ****
9203 HC3   -18.147967   14.837948   13.306194 H    1483 MOH     0.0372 ****
9204 O1    -18.523244   15.012678   11.271140 O    1483 MOH    -0.6497 ****
9205 HO1   -17.885850   15.721805   11.380742 H    1483 MOH     0.4215 ****
9206 HC1    -6.493574   19.169054   17.174775 H    1484 MOH     0.0372 ****
9207 C1     -6.109636   19.765913   16.347460 C    1484 MOH     0.1166 ****
9208 HC2    -5.422012   19.148641   15.769047 H    1484 MOH     0.0372 ****
9209 HC3    -5.608496   20.627725   16.789402 H    1484 MOH     0.0372 ****
9210 O1     -7.174847   20.205596   15.560450 O    1484 MOH    -0.6497 ****
9211 HO1    -7.704278   19.449520   15.298821 H    1484 MOH     0.4215 ****
9212 HC1   -16.027359   28.165213   21.775212 H    1485 MOH     0.0372 ****
9213 C1    -15.963851   27.242164   21.198920 C    1485 MOH     0.1166 ****
9214 HC2   -14.932126   27.038039   20.913248 H    1485 MOH     0.0372 ****
9215 HC3   -16.581038   27.354024   20.307965 H    1485 MOH     0.0372 ****
9216 O1    -16.481734   26.188883   21.964009 O    1485 MOH    -0.6497 ****
9217 HO1   -16.231741   25.364221   21.539745 H    1485 MOH     0.4215 ****
9218 HC1    -6.601539   24.625700   15.910468 H    1486 MOH     0.0372 ****
9219 C1     -5.961257   23.750416   16.019362 C    1486 MOH     0.1166 ****
9220 HC2    -6.111368   23.349516   17.022040 H    1486 MOH     0.0372 ****
9221 HC3    -4.922604   24.063134   15.913296 H    1486 MOH     0.0372 ****
9222 O1     -6.340576   22.808587   15.015978 O    1486 MOH    -0.6497 ****
9223 HO1    -6.411590   21.935344   15.408422 H    1486 MOH     0.4215 ****
9224 HC1    -8.465803   26.839223   20.331300 H    1487 MOH     0.0372 ****
9225 C1     -7.607283   27.200931   19.765614 C    1487 MOH     0.1166 ****
9226 HC2    -7.955425   27.720222   18.873245 H    1487 MOH     0.0372 ****
9227 HC3    -6.977971   26.360347   19.472165 H    1487 MOH     0.0372 ****
9228 O1     -6.857882   28.090504   20.561109 O    1487 MOH    -0.6497 ****
9229 HO1    -6.690451   27.672049   21.408930 H    1487 MOH     0.4215 ****
9230 HC1    -7.666750   28.160314   10.399278 H    1488 MOH     0.0372 ****
9231 C1     -8.113619   28.574278    9.495595 C    1488 MOH     0.1166 ****
9232 HC2    -9.141302   28.893120    9.667422 H    1488 MOH     0.0372 ****
9233 HC3    -8.083019   27.801872    8.726263 H    1488 MOH     0.0372 ****
9234 O1     -7.303019   29.638581    9.107394 O    1488 MOH    -0.6497 ****
9235 HO1    -7.121154   30.184817    9.875312 H    1488 MOH     0.4215 ****
9236 HC1   -14.440800   25.908008    4.993446 H    1489 MOH     0.0372 ****
9237 C1    -15.365138   26.423217    4.731817 C    1489 MOH     0.1166 ****
9238 HC2   -16.078166   26.376269    5.555596 H    1489 MOH     0.0372 ****
9239 HC3   -15.801038   25.977002    3.838741 H    1489 MOH     0.0372 ****
9240 O1    -15.127270   27.772478    4.452510 O    1489 MOH    -0.6497 ****
9241 HO1   -14.622666   27.802688    3.636508 H    1489 MOH     0.4215 ****
9242 HC1   -24.181277   15.688329    5.532969 H    1490 MOH     0.0372 ****
9243 C1    -23.667435   15.997373    6.443015 C    1490 MOH     0.1166 ****
9244 HC2   -22.584326   15.971245    6.327050 H    1490 MOH     0.0372 ****
9245 HC3   -23.970544   15.358056    7.273159 H    1490 MOH     0.0372 ****
9246 O1    -24.106799   17.254777    6.725858 O    1490 MOH    -0.6497 ****
9247 HO1   -24.438775   17.616894    5.900664 H    1490 MOH     0.4215 ****
9248 HC1   -22.329715   18.897160    9.266493 H    1491 MOH     0.0372 ****
9249 C1    -23.211906   19.480547    9.527415 C    1491 MOH     0.1166 ****
9250 HC2   -22.907642   20.479122    9.838542 H    1491 MOH     0.0372 ****
9251 HC3   -23.747109   18.990649   10.340588 H    1491 MOH     0.0372 ****
9252 O1    -24.032898   19.535661    8.359982 O    1491 MOH    -0.6497 ****
9253 HO1   -24.123542   18.646904    8.007135 H    1491 MOH     0.4215 ****
9254 HC1   -14.792984    9.904675   14.717579 H    1492 MOH     0.0372 ****
9255 C1    -13.955249   10.132886   14.057848 C    1492 MOH     0.1166 ****
9256 HC2   -13.597869   11.134319   14.293315 H    1492 MOH     0.0372 ****
9257 HC3   -14.305701   10.087979   13.026887 H    1492 MOH     0.0372 ****
9258 O1    -12.874449    9.191057   14.262202 O    1492 MOH    -0.6497 ****
9259 HO1   -12.041333    9.579301   13.984309 H    1492 MOH     0.4215 ****
9260 HC1   -20.599396   20.759997   14.332913 H    1493 MOH     0.0372 ****
9261 C1    -20.911165   21.803480   14.297557 C    1493 MOH     0.1166 ****
9262 HC2   -20.105184   22.460760   14.625655 H    1493 MOH     0.0372 ****
9263 HC3   -21.754096   21.926771   14.976380 H    1493 MOH     0.0372 ****
9264 O1    -21.364385   22.149674   13.003552 O    1493 MOH    -0.6497 ****
9265 HO1   -21.575695   23.085379   13.033250 H    1493 MOH     0.4215 ****
9266 HC1   -24.874097   19.930845   15.149621 H    1494 MOH     0.0372 ****
9267 C1    -24.102757   19.637723   15.862385 C    1494 MOH     0.1166 ****
9268 HC2   -23.204978   19.381343   15.299528 H    1494 MOH     0.0372 ****
9269 HC3   -24.433002   18.749374   16.401200 H    1494 MOH     0.0372 ****
9270 O1    -23.842372   20.715090   16.771017 O    1494 MOH    -0.6497 ****
9271 HO1   -24.508635   20.690187   17.461860 H    1494 MOH     0.4215 ****
9272 HC1   -15.568366   24.576710   12.249069 H    1495 MOH     0.0372 ****
9273 C1    -14.786633   25.249912   11.897637 C    1495 MOH     0.1166 ****
9274 HC2   -14.227181   24.815127   11.069615 H    1495 MOH     0.0372 ****
9275 HC3   -14.101319   25.454853   12.719295 H    1495 MOH     0.0372 ****
9276 O1    -15.360519   26.449345   11.452160 O    1495 MOH    -0.6497 ****
9277 HO1   -15.165375   27.092745   12.138053 H    1495 MOH     0.4215 ****
9278 HC1    -4.439477   31.911136    7.705201 H    1496 MOH     0.0372 ****
9279 C1     -4.626539   30.925216    8.130172 C    1496 MOH     0.1166 ****
9280 HC2    -5.018560   31.019930    9.142749 H    1496 MOH     0.0372 ****
9281 HC3    -3.669292   30.408782    8.198761 H    1496 MOH     0.0372 ****
9282 O1     -5.467738   30.121375    7.280937 O    1496 MOH    -0.6497 ****
9283 HO1    -6.183652   29.775181    7.818338 H    1496 MOH     0.4215 ****
9284 HC1     0.734159   31.805808   10.789601 H    1497 MOH     0.0372 ****
9285 C1      0.054040   31.237118   11.423876 C    1497 MOH     0.1166 ****
9286 HC2     0.408533   31.274269   12.454130 H    1497 MOH     0.0372 ****
9287 HC3    -0.000808   30.200576   11.092242 H    1497 MOH     0.0372 ****
9288 O1     -1.178603   31.860105   11.341851 O    1497 MOH    -0.6497 ****
9289 HO1    -1.076412   32.752944   11.677727 H    1497 MOH     0.4215 ****
9290 HC1     1.063825   32.180172   16.018655 H    1498 MOH     0.0372 ****
9291 C1      0.897549   32.267128   17.092751 C    1498 MOH     0.1166 ****
9292 HC2     0.969717   33.323267   17.352259 H    1498 MOH     0.0372 ****
9293 HC3     1.684477   31.713136   17.605403 H    1498 MOH     0.0372 ****
9294 O1     -0.428048   31.748245   17.326803 O    1498 MOH    -0.6497 ****
9295 HO1    -0.739239   32.096889   18.165432 H    1498 MOH     0.4215 ****
9296 HC1    -7.236739   30.294473   18.096842 H    1499 MOH     0.0372 ****
9297 C1     -6.160558   30.302638   17.927137 C    1499 MOH     0.1166 ****
9298 HC2    -5.740247   31.162817   18.446860 H    1499 MOH     0.0372 ****
9299 HC3    -5.956754   30.363058   16.857991 H    1499 MOH     0.0372 ****
9300 O1     -5.567042   29.157910   18.427768 O    1499 MOH    -0.6497 ****
9301 HO1    -6.028923   28.896631   19.226799 H    1499 MOH     0.4215 ****
9302 HC1    -3.149099   28.183013   16.217352 H    1500 MOH     0.0372 ****
9303 C1     -2.567708   28.940313   16.744147 C    1500 MOH     0.1166 ****
9304 HC2    -1.514044   28.696181   16.606968 H    1500 MOH     0.0372 ****
9305 HC3    -2.797493   28.950928   17.809050 H    1500 MOH     0.0372 ****
9306 O1     -2.695880   30.200576   16.191897 O    1500 MOH    -0.6497 ****
9307 HO1    -1.897404   30.677001   16.433020 H    1500 MOH     0.4215 ****
9308 HC1    -2.928552   27.860496   11.554690 H    1501 MOH     0.0372 ****
9309 C1     -2.961461   28.945620   11.455695 C    1501 MOH     0.1166 ****
9310 HC2    -2.516324   29.414698   12.333215 H    1501 MOH     0.0372 ****
9311 HC3    -3.998959   29.271403   11.380742 H    1501 MOH     0.0372 ****
9312 O1     -2.275568   29.322842   10.290383 O    1501 MOH    -0.6497 ****
9313 HO1    -2.173955   30.276102   10.330688 H    1501 MOH     0.4215 ****
9314 HC1    -3.194710   26.307112   14.717579 H    1502 MOH     0.0372 ****
9315 C1     -2.356975   26.535322   14.057848 C    1502 MOH     0.1166 ****
9316 HC2    -1.999595   27.536756   14.293315 H    1502 MOH     0.0372 ****
9317 HC3    -2.707426   26.490415   13.026887 H    1502 MOH     0.0372 ****
9318 O1     -1.276175   25.593494   14.262202 O    1502 MOH    -0.6497 ****
9319 HO1    -0.443059   25.981738   13.984309 H    1502 MOH     0.4215 ****
9320 HC1   -27.257284  -19.392855    6.913383 H    1503 MOH     0.0372 ****
9321 C1    -27.196085  -18.613101    7.671401 C    1503 MOH     0.1166 ****
9322 HC2   -26.835818  -19.058908    8.599125 H    1503 MOH     0.0372 ****
9323 HC3   -28.189127  -18.187706    7.817065 H    1503 MOH     0.0372 ****
9324 O1    -26.324863  -17.590439    7.243602 O    1503 MOH    -0.6497 ****
9325 HO1   -25.438053  -17.950514    7.177134 H    1503 MOH     0.4215 ****
9326 HC1   -20.998807  -14.643703    1.132785 H    1504 MOH     0.0372 ****
9327 C1    -20.565217  -14.450601    2.113542 C    1504 MOH     0.1166 ****
9328 HC2   -20.279428  -13.399770    2.164454 H    1504 MOH     0.0372 ****
9329 HC3   -19.677252  -15.069914    2.240114 H    1504 MOH     0.0372 ****
9330 O1    -21.519577  -14.765361    3.121169 O    1504 MOH    -0.6497 ****
9331 HO1   -21.318659  -15.656975    3.413911 H    1504 MOH     0.4215 ****
9332 HC1   -25.005618  -25.025457    0.137179 H    1505 MOH     0.0372 ****
9333 C1    -25.854322  -24.590672    0.665387 C    1505 MOH     0.1166 ****
9334 HC2   -25.990577  -23.563520    0.327390 H    1505 MOH     0.0372 ****
9335 HC3   -25.689778  -24.602920    1.743018 H    1505 MOH     0.0372 ****
9336 O1    -27.019993  -25.288777    0.331633 O    1505 MOH    -0.6497 ****
9337 HO1   -26.992857  -26.089352    0.861256 H    1505 MOH     0.4215 ****
9338 HC1   -16.929065  -16.255059   -3.482501 H    1506 MOH     0.0372 ****
9339 C1    -17.123632  -15.513680   -2.707512 C    1506 MOH     0.1166 ****
9340 HC2   -18.187688  -15.471630   -2.474874 H    1506 MOH     0.0372 ****
9341 HC3   -16.822255  -14.525311   -3.054701 H    1506 MOH     0.0372 ****
9342 O1    -16.453905  -15.843953   -1.496238 O    1506 MOH    -0.6497 ****
9343 HO1   -16.671566  -16.738425   -1.224002 H    1506 MOH     0.4215 ****
9344 HC1   -26.111243  -17.949698   -9.476645 H    1507 MOH     0.0372 ****
9345 C1    -26.903368  -18.482053   -8.950558 C    1507 MOH     0.1166 ****
9346 HC2   -26.876232  -18.224449   -7.892019 H    1507 MOH     0.0372 ****
9347 HC3   -26.737668  -19.549623   -9.092686 H    1507 MOH     0.0372 ****
9348 O1    -28.131969  -18.066457   -9.506344 O    1507 MOH    -0.6497 ****
9349 HO1   -28.826522  -18.425307   -8.948436 H    1507 MOH     0.4215 ****
9350 HC1   -25.414959  -10.058666  -10.595995 H    1508 MOH     0.0372 ****
9351 C1    -24.877446   -9.716146  -11.480586 C    1508 MOH     0.1166 ****
9352 HC2   -25.205381  -10.290143  -12.347499 H    1508 MOH     0.0372 ****
9353 HC3   -23.818008   -9.900674  -11.302395 H    1508 MOH     0.0372 ****
9354 O1    -25.137831   -8.335450  -11.749286 O    1508 MOH    -0.6497 ****
9355 HO1   -24.878600   -8.130510  -12.650140 H    1508 MOH     0.4215 ****
9356 HC1   -22.046120  -11.890885   -1.953736 H    1509 MOH     0.0372 ****
9357 C1    -21.997623  -12.978458   -2.004648 C    1509 MOH     0.1166 ****
9358 HC2   -22.375787  -13.333226   -2.962778 H    1509 MOH     0.0372 ****
9359 HC3   -22.604418  -13.425082   -1.216931 H    1509 MOH     0.0372 ****
9360 O1    -20.661057  -13.412834   -1.931109 O    1509 MOH    -0.6497 ****
9361 HO1   -20.693388  -14.372218   -1.909896 H    1509 MOH     0.4215 ****
9362 HC1   -30.956367  -12.915588   -7.527152 H    1510 MOH     0.0372 ****
9363 C1    -30.910756  -13.370377   -8.517101 C    1510 MOH     0.1166 ****
9364 HC2   -29.993346  -13.949273   -8.625996 H    1510 MOH     0.0372 ****
9365 HC3   -30.921148  -12.592664   -9.280070 H    1510 MOH     0.0372 ****
9366 O1    -32.014072  -14.206877   -8.734183 O    1510 MOH    -0.6497 ****
9367 HO1   -31.754842  -15.094409   -8.476796 H    1510 MOH     0.4215 ****
9368 HC1   -22.849214  -17.472455   -9.031875 H    1511 MOH     0.0372 ****
9369 C1    -22.650606  -16.511847   -8.557406 C    1511 MOH     0.1166 ****
9370 HC2   -21.585972  -16.294659   -8.640845 H    1511 MOH     0.0372 ****
9371 HC3   -22.879814  -16.546956   -7.492504 H    1511 MOH     0.0372 ****
9372 O1    -23.443885  -15.516130   -9.208652 O    1511 MOH    -0.6497 ****
9373 HO1   -23.396542  -14.740050   -8.645088 H    1511 MOH     0.4215 ****
9374 HC1   -24.007956  -22.939716   -4.019902 H    1512 MOH     0.0372 ****
9375 C1    -23.960613  -22.216300   -3.205315 C    1512 MOH     0.1166 ****
9376 HC2   -24.753893  -21.488802   -3.376435 H    1512 MOH     0.0372 ****
9377 HC3   -22.999903  -21.702724   -3.251984 H    1512 MOH     0.0372 ****
9378 O1    -24.145943  -22.858067   -1.911310 O    1512 MOH    -0.6497 ****
9379 HO1   -24.337623  -22.182416   -1.255822 H    1512 MOH     0.4215 ****
9380 HC1   -17.250071  -14.225248    0.299106 H    1513 MOH     0.0372 ****
9381 C1    -17.167510  -13.285461    0.844993 C    1513 MOH     0.1166 ****
9382 HC2   -17.994276  -12.629814    0.572049 H    1513 MOH     0.0372 ****
9383 HC3   -16.210264  -12.823324    0.600334 H    1513 MOH     0.0372 ****
9384 O1    -17.208502  -13.643495    2.186374 O    1513 MOH    -0.6497 ****
9385 HO1   -16.984490  -12.900483    2.750645 H    1513 MOH     0.4215 ****
9386 HC1   -29.342673   -9.601020    0.042426 H    1514 MOH     0.0372 ****
9387 C1    -30.008358   -8.742066    0.127279 C    1514 MOH     0.1166 ****
9388 HC2   -31.050475   -9.062132    0.120208 H    1514 MOH     0.0372 ****
9389 HC3   -29.873258   -8.117446   -0.755190 H    1514 MOH     0.0372 ****
9390 O1    -29.782614   -7.945165    1.330775 O    1514 MOH    -0.6497 ****
9391 HO1   -29.855360   -8.512222    2.100814 H    1514 MOH     0.4215 ****
9392 HC1   -29.268195  -20.255076    8.992277 H    1515 MOH     0.0372 ****
9393 C1    -28.968550  -21.302232    8.977428 C    1515 MOH     0.1166 ****
9394 HC2   -28.334619  -21.490843    8.110515 H    1515 MOH     0.0372 ****
9395 HC3   -29.836307  -21.956246    8.898232 H    1515 MOH     0.0372 ****
9396 O1    -28.263605  -21.613318   10.171024 O    1515 MOH    -0.6497 ****
9397 HO1   -27.829438  -22.461658   10.052230 H    1515 MOH     0.4215 ****
9398 HC1   -22.462390  -25.602720   -3.415326 H    1516 MOH     0.0372 ****
9399 C1    -23.142508  -26.171410   -2.781051 C    1516 MOH     0.1166 ****
9400 HC2   -22.788015  -26.134259   -1.750796 H    1516 MOH     0.0372 ****
9401 HC3   -23.197356  -27.207952   -3.112684 H    1516 MOH     0.0372 ****
9402 O1    -24.375151  -25.548423   -2.863075 O    1516 MOH    -0.6497 ****
9403 HO1   -24.272960  -24.655584   -2.527200 H    1516 MOH     0.4215 ****
9404 HC1   -28.594427  -19.139333    1.568363 H    1517 MOH     0.0372 ****
9405 C1    -28.734723  -19.293651    0.499217 C    1517 MOH     0.1166 ****
9406 HC2   -28.931022  -18.339166    0.009899 H    1517 MOH     0.0372 ****
9407 HC3   -29.568994  -19.972568    0.323148 H    1517 MOH     0.0372 ****
9408 O1    -27.559238  -19.848052   -0.052326 O    1517 MOH    -0.6497 ****
9409 HO1   -26.912605  -19.948889    0.649831 H    1517 MOH     0.4215 ****
9410 HC1   -25.831228  -11.102965    2.858833 H    1518 MOH     0.0372 ****
9411 C1    -25.348564  -12.068881    2.711754 C    1518 MOH     0.1166 ****
9412 HC2   -26.121636  -12.822915    2.563969 H    1518 MOH     0.0372 ****
9413 HC3   -24.783915  -12.311380    3.611194 H    1518 MOH     0.0372 ****
9414 O1    -24.440392  -12.041120    1.588869 O    1518 MOH    -0.6497 ****
9415 HO1   -23.729096  -11.436913    1.817971 H    1518 MOH     0.4215 ****
9416 HC1   -31.138232  -19.345498   -5.800397 H    1519 MOH     0.0372 ****
9417 C1    -31.299313  -20.358362   -5.431994 C    1519 MOH     0.1166 ****
9418 HC2   -32.050445  -20.313455   -4.644278 H    1519 MOH     0.0372 ****
9419 HC3   -30.374398  -20.758854   -5.016923 H    1519 MOH     0.0372 ****
9420 O1    -31.750801  -21.205069   -6.488412 O    1519 MOH    -0.6497 ****
9421 HO1   -31.346078  -22.063207   -6.338505 H    1519 MOH     0.4215 ****
9422 HC1   -22.132723  -25.228356    1.813729 H    1520 MOH     0.0372 ****
9423 C1    -22.298999  -25.141399    2.887824 C    1520 MOH     0.1166 ****
9424 HC2   -22.226831  -24.085261    3.147332 H    1520 MOH     0.0372 ****
9425 HC3   -21.512071  -25.695392    3.400476 H    1520 MOH     0.0372 ****
9426 O1    -23.624596  -25.660283    3.121876 O    1520 MOH    -0.6497 ****
9427 HO1   -23.935787  -25.311639    3.960505 H    1520 MOH     0.4215 ****
9428 HC1   -23.266639   -7.831264   10.994803 H    1521 MOH     0.0372 ****
9429 C1    -23.977934   -8.657150   10.984197 C    1521 MOH     0.1166 ****
9430 HC2   -23.615936   -9.388323   10.260826 H    1521 MOH     0.0372 ****
9431 HC3   -24.966935   -8.284827   10.714082 H    1521 MOH     0.0372 ****
9432 O1    -24.041443   -9.230739   12.269010 O    1521 MOH    -0.6497 ****
9433 HO1   -24.317416   -8.546923   12.883485 H    1521 MOH     0.4215 ****
9434 HC1   -27.336958   -6.301557   -6.013236 H    1522 MOH     0.0372 ****
9435 C1    -27.917772   -5.920253   -5.173193 C    1522 MOH     0.1166 ****
9436 HC2   -27.620437   -4.913105   -4.881158 H    1522 MOH     0.0372 ****
9437 HC3   -27.709926   -6.575492   -4.326787 H    1522 MOH     0.0372 ****
9438 O1    -29.297062   -5.963936   -5.458157 O    1522 MOH    -0.6497 ****
9439 HO1   -29.702362   -6.638770   -4.908736 H    1522 MOH     0.4215 ****
9440 HC1   -22.539177  -19.090343    0.632153 H    1523 MOH     0.0372 ****
9441 C1    -22.555920  -20.097492    0.214253 C    1523 MOH     0.1166 ****
9442 HC2   -22.054203  -20.755996    0.922067 H    1523 MOH     0.0372 ****
9443 HC3   -22.004551  -20.126069   -0.726199 H    1523 MOH     0.0372 ****
9444 O1    -23.898837  -20.533093    0.065054 O    1523 MOH    -0.6497 ****
9445 HO1   -24.390739  -20.272222    0.847821 H    1523 MOH     0.4215 ****
9446 HC1   -28.404479  -15.299350   -0.236174 H    1524 MOH     0.0372 ****
9447 C1    -29.467958  -15.098491   -0.367696 C    1524 MOH     0.1166 ****
9448 HC2   -30.049927  -16.019500   -0.340826 H    1524 MOH     0.0372 ****
9449 HC3   -29.633080  -14.627781   -1.337139 H    1524 MOH     0.0372 ****
9450 O1    -29.918291  -14.208102    0.611647 O    1524 MOH    -0.6497 ****
9451 HO1   -29.808017  -13.313630    0.281428 H    1524 MOH     0.4215 ****
9452 HC1   -24.691539  -12.371801   -3.032781 H    1525 MOH     0.0372 ****
9453 C1    -25.095684  -12.026015   -3.983840 C    1525 MOH     0.1166 ****
9454 HC2   -26.028682  -12.549389   -4.195972 H    1525 MOH     0.0372 ****
9455 HC3   -24.374574  -12.170943   -4.787820 H    1525 MOH     0.0372 ****
9456 O1    -25.342213  -10.660016   -3.829690 O    1525 MOH    -0.6497 ****
9457 HO1   -24.517756  -10.204411   -3.641600 H    1525 MOH     0.4215 ****
9458 HC1   -28.924094  -23.627615    2.170818 H    1526 MOH     0.0372 ****
9459 C1    -29.110001  -23.041778    1.270671 C    1526 MOH     0.1166 ****
9460 HC2   -29.092103  -23.665582    0.376888 H    1526 MOH     0.0372 ****
9461 HC3   -28.362332  -22.256309    1.161776 H    1526 MOH     0.0372 ****
9462 O1    -30.352458  -22.453493    1.400071 O    1526 MOH    -0.6497 ****
9463 HO1   -30.650948  -22.342857    0.494267 H    1526 MOH     0.4215 ****
9464 HC1   -27.739371  -20.052584    3.589981 H    1527 MOH     0.0372 ****
9465 C1    -26.985352  -20.806211    3.362293 C    1527 MOH     0.1166 ****
9466 HC2   -27.471481  -21.695784    2.962777 H    1527 MOH     0.0372 ****
9467 HC3   -26.496336  -21.095659    4.292138 H    1527 MOH     0.0372 ****
9468 O1    -26.051199  -20.264057    2.417598 O    1527 MOH    -0.6497 ****
9469 HO1   -25.834693  -19.366319    2.677106 H    1527 MOH     0.4215 ****
9470 HC1   -29.493938  -11.699824   -5.496341 H    1528 MOH     0.0372 ****
9471 C1    -29.731229  -11.986415   -4.471036 C    1528 MOH     0.1166 ****
9472 HC2   -28.969127  -12.649002   -4.061622 H    1528 MOH     0.0372 ****
9473 HC3   -30.684435  -12.515096   -4.490128 H    1528 MOH     0.0372 ****
9474 O1    -29.832843  -10.860058   -3.633115 O    1528 MOH    -0.6497 ****
9475 HO1   -29.059194  -10.303615   -3.752616 H    1528 MOH     0.4215 ****
9476 HC1   -22.451997  -10.484469   -4.699432 H    1529 MOH     0.0372 ****
9477 C1    -22.031686   -9.601020   -4.218599 C    1529 MOH     0.1166 ****
9478 HC2   -21.778229   -8.859233   -4.975911 H    1529 MOH     0.0372 ****
9479 HC3   -21.144876   -9.883936   -3.652207 H    1529 MOH     0.0372 ****
9480 O1    -23.036853   -9.104590   -3.395527 O    1529 MOH    -0.6497 ****
9481 HO1   -22.680628   -8.908223   -2.526493 H    1529 MOH     0.4215 ****
9482 HC1   -28.100792   -8.176642    7.876462 H    1530 MOH     0.0372 ****
9483 C1    -28.143516   -7.302582    7.226631 C    1530 MOH     0.1166 ****
9484 HC2   -27.342731   -6.602436    7.464926 H    1530 MOH     0.0372 ****
9485 HC3   -29.082865   -6.786556    7.421793 H    1530 MOH     0.0372 ****
9486 O1    -28.142939   -7.656942    5.835045 O    1530 MOH    -0.6497 ****
9487 HO1   -28.033820   -6.864532    5.304008 H    1530 MOH     0.4215 ****
9488 HC1   -29.123857  -16.188106   -4.924999 H    1531 MOH     0.0372 ****
9489 C1    -29.109423  -15.480612   -5.754435 C    1531 MOH     0.1166 ****
9490 HC2   -30.100156  -15.049502   -5.895857 H    1531 MOH     0.0372 ****
9491 HC3   -28.770519  -15.973776   -6.665189 H    1531 MOH     0.0372 ****
9492 O1    -28.232428  -14.428964   -5.447551 O    1531 MOH    -0.6497 ****
9493 HO1   -28.036129  -14.422024   -4.507806 H    1531 MOH     0.4215 ****
9494 HC1   -22.992397  -20.022782    8.404671 H    1532 MOH     0.0372 ****
9495 C1    -22.917342  -18.980933    8.094958 C    1532 MOH     0.1166 ****
9496 HC2   -21.878689  -18.756396    7.851714 H    1532 MOH     0.0372 ****
9497 HC3   -23.279340  -18.379583    8.930051 H    1532 MOH     0.0372 ****
9498 O1    -23.805306  -18.823349    7.018742 O    1532 MOH    -0.6497 ****
9499 HO1   -23.438112  -19.343865    6.301028 H    1532 MOH     0.4215 ****
9500 HC1   -24.369955  -11.549589   -7.573821 H    1533 MOH     0.0372 ****
9501 C1    -23.626328  -12.070514   -8.176276 C    1533 MOH     0.1166 ****
9502 HC2   -22.710650  -11.481003   -8.224359 H    1533 MOH     0.0372 ****
9503 HC3   -23.962345  -12.191764   -9.206530 H    1533 MOH     0.0372 ****
9504 O1    -23.288000  -13.299341   -7.592206 O    1533 MOH    -0.6497 ****
9505 HO1   -23.991790  -13.570826   -6.998943 H    1533 MOH     0.4215 ****
9506 HC1   -23.654041  -17.226690   -2.913987 H    1534 MOH     0.0372 ****
9507 C1    -23.693300  -18.296300   -3.119048 C    1534 MOH     0.1166 ****
9508 HC2   -24.471568  -18.724553   -2.487602 H    1534 MOH     0.0372 ****
9509 HC3   -22.724507  -18.732718   -2.875096 H    1534 MOH     0.0372 ****
9510 O1    -23.981975  -18.588198   -4.487300 O    1534 MOH    -0.6497 ****
9511 HO1   -23.552427  -19.402653   -4.759536 H    1534 MOH     0.4215 ****
9512 HC1   -19.492500  -18.546557   -5.160465 H    1535 MOH     0.0372 ****
9513 C1    -20.015002  -17.617383   -4.932777 C    1535 MOH     0.1166 ****
9514 HC2   -21.047304  -17.830489   -4.654177 H    1535 MOH     0.0372 ****
9515 HC3   -19.974587  -16.971126   -5.808882 H    1535 MOH     0.0372 ****
9516 O1    -19.327378  -17.054001   -3.866460 O    1535 MOH    -0.6497 ****
9517 HO1   -18.864920  -17.769252   -3.423811 H    1535 MOH     0.4215 ****
9518 HC1   -26.092191  -23.332451    4.479521 H    1536 MOH     0.0372 ****
9519 C1    -25.841043  -23.852968    5.403710 C    1536 MOH     0.1166 ****
9520 HC2   -26.507883  -24.706615    5.524625 H    1536 MOH     0.0372 ****
9521 HC3   -25.964019  -23.183032    6.254359 H    1536 MOH     0.0372 ****
9522 O1    -24.501013  -24.283670    5.306836 O    1536 MOH    -0.6497 ****
9523 HO1   -24.311065  -24.839296    6.065562 H    1536 MOH     0.4215 ****
9524 HC1   -24.619370  -16.402028   -5.541596 H    1537 MOH     0.0372 ****
9525 C1    -25.556410  -16.146057   -6.034449 C    1537 MOH     0.1166 ****
9526 HC2   -26.394722  -16.477962   -5.421388 H    1537 MOH     0.0372 ****
9527 HC3   -25.574885  -16.644936   -7.003186 H    1537 MOH     0.0372 ****
9528 O1    -25.587009  -14.762503   -6.251531 O    1537 MOH    -0.6497 ****
9529 HO1   -26.503264  -14.521228   -6.403559 H    1537 MOH     0.4215 ****
9530 HC1   -27.948949  -21.111989   -7.249259 H    1538 MOH     0.0372 ****
9531 C1    -27.643531  -22.092193   -7.616247 C    1538 MOH     0.1166 ****
9532 HC2   -26.694367  -22.012585   -8.145870 H    1538 MOH     0.0372 ****
9533 HC3   -28.410252  -22.484520   -8.283049 H    1538 MOH     0.0372 ****
9534 O1    -27.489956  -23.012793   -6.542152 O    1538 MOH    -0.6497 ****
9535 HO1   -26.640673  -23.446761   -6.650339 H    1538 MOH     0.4215 ****
9536 HC1   -22.107897  -23.760295   -0.576292 H    1539 MOH     0.0372 ****
9537 C1    -21.236675  -23.256925   -0.995606 C    1539 MOH     0.1166 ****
9538 HC2   -21.534588  -22.307748   -1.438962 H    1539 MOH     0.0372 ****
9539 HC3   -20.797889  -23.868481   -1.784738 H    1539 MOH     0.0372 ****
9540 O1    -20.267881  -22.981766   -0.009900 O    1539 MOH    -0.6497 ****
9541 HO1   -19.837755  -23.819900    0.173241 H    1539 MOH     0.4215 ****
9542 HC1   -30.663073  -17.436530  -12.324164 H    1540 MOH     0.0372 ****
9543 C1    -29.739312  -17.248327  -12.872172 C    1540 MOH     0.1166 ****
9544 HC2   -29.148683  -18.163211  -12.834695 H    1540 MOH     0.0372 ****
9545 HC3   -29.216810  -16.424890  -12.384975 H    1540 MOH     0.0372 ****
9546 O1    -30.012399  -16.896009  -14.226282 O    1540 MOH    -0.6497 ****
9547 HO1   -29.230667  -16.473880  -14.589734 H    1540 MOH     0.4215 ****
9548 HC1   -26.555226   -8.180724   -2.303047 H    1541 MOH     0.0372 ****
9549 C1    -27.570207   -8.564069   -2.406992 C    1541 MOH     0.1166 ****
9550 HC2   -28.291318   -7.746756   -2.385778 H    1541 MOH     0.0372 ****
9551 HC3   -27.805189   -9.258908   -1.600890 H    1541 MOH     0.0372 ****
9552 O1    -27.697802   -9.276054   -3.589274 O    1541 MOH    -0.6497 ****
9553 HO1   -26.977269   -9.909247   -3.621094 H    1541 MOH     0.4215 ****
9554 HC1   -27.021725  -22.514730   -2.230215 H    1542 MOH     0.0372 ****
9555 C1    -27.519978  -23.290402   -2.810042 C    1542 MOH     0.1166 ****
9556 HC2   -26.793094  -24.035863   -3.132483 H    1542 MOH     0.0372 ****
9557 HC3   -27.982435  -22.816425   -3.676248 H    1542 MOH     0.0372 ****
9558 O1    -28.495123  -23.921145   -2.013133 O    1542 MOH    -0.6497 ****
9559 HO1   -28.023427  -24.290202   -1.263600 H    1542 MOH     0.4215 ****
9560 HC1   -23.681176  -16.462857    4.956818 H    1543 MOH     0.0372 ****
9561 C1    -24.303560  -15.568385    4.947626 C    1543 MOH     0.1166 ****
9562 HC2   -23.859577  -14.781283    5.557152 H    1543 MOH     0.0372 ****
9563 HC3   -25.275240  -15.846402    5.357041 H    1543 MOH     0.0372 ****
9564 O1    -24.483116  -15.115638    3.626043 O    1543 MOH    -0.6497 ****
9565 HO1   -23.625750  -14.840070    3.292996 H    1543 MOH     0.4215 ****
9566 HC1   -27.697224  -10.815967   -6.523767 H    1544 MOH     0.0372 ****
9567 C1    -27.104286  -11.154405   -7.373003 C    1544 MOH     0.1166 ****
9568 HC2   -26.737091  -12.150122   -7.124808 H    1544 MOH     0.0372 ****
9569 HC3   -26.257313  -10.484469   -7.525031 H    1544 MOH     0.0372 ****
9570 O1    -27.908535  -11.205436   -8.543264 O    1544 MOH    -0.6497 ****
9571 HO1   -27.501503  -11.855775   -9.120971 H    1544 MOH     0.4215 ****
9572 HC1   -28.052295  -16.283228    2.797314 H    1545 MOH     0.0372 ****
9573 C1    -27.598498  -15.403861    3.254105 C    1545 MOH     0.1166 ****
9574 HC2   -26.761340  -15.087061    2.631851 H    1545 MOH     0.0372 ****
9575 HC3   -27.294811  -15.652893    4.270925 H    1545 MOH     0.0372 ****
9576 O1    -28.548816  -14.406102    3.218750 O    1545 MOH    -0.6497 ****
9577 HO1   -28.876751  -14.350581    2.317896 H    1545 MOH     0.4215 ****
9578 HC1   -20.689347  -12.964169    8.174154 H    1546 MOH     0.0372 ****
9579 C1    -20.942226  -12.099499    8.787923 C    1546 MOH     0.1166 ****
9580 HC2   -20.134513  -11.916196    9.495737 H    1546 MOH     0.0372 ****
9581 HC3   -21.860213  -12.332201    9.326738 H    1546 MOH     0.0372 ****
9582 O1    -21.134484  -10.991105    7.931617 O    1546 MOH    -0.6497 ****
9583 HO1   -21.819799  -11.262182    7.316434 H    1546 MOH     0.4215 ****
9584 HC1   -24.429999  -20.223640    4.640035 H    1547 MOH     0.0372 ****
9585 C1    -23.607275  -20.914397    4.454773 C    1547 MOH     0.1166 ****
9586 HC2   -23.331879  -20.793147    3.407547 H    1547 MOH     0.0372 ****
9587 HC3   -23.915580  -21.954205    4.561546 H    1547 MOH     0.0372 ****
9588 O1    -22.517238  -20.603720    5.339363 O    1547 MOH    -0.6497 ****
9589 HO1   -21.906401  -21.344282    5.352091 H    1547 MOH     0.4215 ****
9590 HC1   -28.682761  -18.882137   -4.555182 H    1548 MOH     0.0372 ****
9591 C1    -27.755537  -19.058908   -4.011417 C    1548 MOH     0.1166 ****
9592 HC2   -27.821355  -19.983591   -3.437953 H    1548 MOH     0.0372 ****
9593 HC3   -27.532102  -18.222407   -3.348858 H    1548 MOH     0.0372 ****
9594 O1    -26.752102  -19.160970   -4.941969 O    1548 MOH    -0.6497 ****
9595 HO1   -25.942080  -18.820083   -4.555182 H    1548 MOH     0.4215 ****
9596 HC1   -30.779697  -18.738025   -9.828077 H    1549 MOH     0.0372 ****
9597 C1    -30.499683  -19.646377   -9.294212 C    1549 MOH     0.1166 ****
9598 HC2   -29.691392  -20.141991   -9.831613 H    1549 MOH     0.0372 ****
9599 HC3   -31.330490  -20.352239   -9.270877 H    1549 MOH     0.0372 ****
9600 O1    -30.062051  -19.385099   -7.974750 O    1549 MOH    -0.6497 ****
9601 HO1   -30.409616  -20.089735   -7.423207 H    1549 MOH     0.4215 ****
9602 HC1   -19.595846  -19.265890    3.575132 H    1550 MOH     0.0372 ****
9603 C1    -20.427230  -18.582482    3.405426 C    1550 MOH     0.1166 ****
9604 HC2   -21.349258  -19.042578    3.762515 H    1550 MOH     0.0372 ****
9605 HC3   -20.497667  -18.394280    2.334159 H    1550 MOH     0.0372 ****
9606 O1    -20.099295  -17.361820    4.057379 O    1550 MOH    -0.6497 ****
9607 HO1   -19.486149  -17.559004    4.769435 H    1550 MOH     0.4215 ****
9608 HC1   -27.089275  -17.036446   12.058292 H    1551 MOH     0.0372 ****
9609 C1    -27.980704  -16.409785   12.026472 C    1551 MOH     0.1166 ****
9610 HC2   -28.869246  -17.040529   11.986167 H    1551 MOH     0.0372 ****
9611 HC3   -27.971466  -15.791697   11.128446 H    1551 MOH     0.0372 ****
9612 O1    -27.970311  -15.562261   13.147943 O    1551 MOH    -0.6497 ****
9613 HO1   -27.214560  -14.982141   13.031271 H    1551 MOH     0.4215 ****
9614 HC1   -19.836023  -16.439587   -0.402344 H    1552 MOH     0.0372 ****
9615 C1    -20.845809  -16.760470   -0.658316 C    1552 MOH     0.1166 ****
9616 HC2   -21.543248  -16.329768    0.060811 H    1552 MOH     0.0372 ****
9617 HC3   -20.927215  -17.846819   -0.623668 H    1552 MOH     0.0372 ****
9618 O1    -21.200879  -16.301191   -1.930402 O    1552 MOH    -0.6497 ****
9619 HO1   -20.602167  -16.708623   -2.559727 H    1552 MOH     0.4215 ****
9620 HC1   -25.432279  -15.774551   10.644785 H    1553 MOH     0.0372 ****
9621 C1    -25.207690  -14.708614   10.694990 C    1553 MOH     0.1166 ****
9622 HC2   -25.566802  -14.160745    9.823834 H    1553 MOH     0.0372 ****
9623 HC3   -24.121694  -14.662074   10.622865 H    1553 MOH     0.0372 ****
9624 O1    -25.568534  -14.110531   11.961418 O    1553 MOH    -0.6497 ****
9625 HO1   -25.640703  -13.161762   11.835553 H    1553 MOH     0.4215 ****
9626 HC1   -31.190194  -17.868456    7.094402 H    1554 MOH     0.0372 ****
9627 C1    -30.844938  -18.711489    6.496897 C    1554 MOH     0.1166 ****
9628 HC2   -30.104775  -19.243436    7.095816 H    1554 MOH     0.0372 ****
9629 HC3   -30.403265  -18.325694    5.578365 H    1554 MOH     0.0372 ****
9630 O1    -31.897448  -19.629231    6.163143 O    1554 MOH    -0.6497 ****
9631 HO1   -31.618588  -20.142399    5.401589 H    1554 MOH     0.4215 ****
9632 HC1   -24.032782   -9.331168    0.871862 H    1555 MOH     0.0372 ****
9633 C1    -24.525262   -8.894750    0.002828 C    1555 MOH     0.1166 ****
9634 HC2   -25.467498   -8.407302    0.253144 H    1555 MOH     0.0372 ****
9635 HC3   -24.777564   -9.729210   -0.651953 H    1555 MOH     0.0372 ****
9636 O1    -23.687527   -7.969660   -0.697207 O    1555 MOH    -0.6497 ****
9637 HO1   -24.228504   -7.269922   -1.069146 H    1555 MOH     0.4215 ****
9638 HC1   -17.691744  -20.731093   -1.467247 H    1556 MOH     0.0372 ****
9639 C1    -18.597607  -20.406536   -1.978485 C    1556 MOH     0.1166 ****
9640 HC2   -19.483262  -20.799271   -1.479267 H    1556 MOH     0.0372 ****
9641 HC3   -18.590101  -20.754772   -3.011568 H    1556 MOH     0.0372 ****
9642 O1    -18.690560  -19.014409   -1.964343 O    1556 MOH    -0.6497 ****
9643 HO1   -18.420360  -18.729044   -1.088237 H    1556 MOH     0.4215 ****
9644 HC1   -25.157461  -16.167285    0.517602 H    1557 MOH     0.0372 ****
9645 C1    -24.494085  -16.989089    0.787010 C    1557 MOH     0.1166 ****
9646 HC2   -23.477949  -16.602886    0.864791 H    1557 MOH     0.0372 ****
9647 HC3   -24.507942  -17.771701    0.028284 H    1557 MOH     0.0372 ****
9648 O1    -24.872250  -17.416117    2.073944 O    1557 MOH    -0.6497 ****
9649 HO1   -24.818556  -16.646977    2.645286 H    1557 MOH     0.4215 ****
9650 HC1   -21.377548   -9.968035    4.620943 H    1558 MOH     0.0372 ****
9651 C1    -21.717030  -10.713905    3.901815 C    1558 MOH     0.1166 ****
9652 HC2   -22.223367  -11.551222    4.383355 H    1558 MOH     0.0372 ****
9653 HC3   -20.830220  -11.110722    3.406840 H    1558 MOH     0.0372 ****
9654 O1    -22.558230  -10.093367    2.947221 O    1558 MOH    -0.6497 ****
9655 HO1   -22.028800   -9.408327    2.531442 H    1558 MOH     0.4215 ****
9656 HC1   -28.008994  -12.471822   -1.216224 H    1559 MOH     0.0372 ****
9657 C1    -27.352546  -12.196254   -0.391030 C    1559 MOH     0.1166 ****
9658 HC2   -27.899297  -12.232180    0.552250 H    1559 MOH     0.0372 ****
9659 HC3   -27.006136  -11.173592   -0.541644 H    1559 MOH     0.0372 ****
9660 O1    -26.233642  -13.068273   -0.325976 O    1559 MOH    -0.6497 ****
9661 HO1   -25.628578  -12.741674    0.344361 H    1559 MOH     0.4215 ****
9662 HC1   -24.232546   -7.756962    6.551344 H    1560 MOH     0.0372 ****
9663 C1    -24.544315   -8.175825    7.508767 C    1560 MOH     0.1166 ****
9664 HC2   -25.071436   -7.429547    8.101322 H    1560 MOH     0.0372 ****
9665 HC3   -23.651731   -8.509364    8.036976 H    1560 MOH     0.0372 ****
9666 O1    -25.358956   -9.289935    7.281785 O    1560 MOH    -0.6497 ****
9667 HO1   -26.044848   -9.048660    6.655996 H    1560 MOH     0.4215 ****
9668 HC1   -29.395212  -10.832705    5.343606 H    1561 MOH     0.0372 ****
9669 C1    -28.813243  -10.590206    4.454065 C    1561 MOH     0.1166 ****
9670 HC2   -28.849616  -11.412009    3.739180 H    1561 MOH     0.0372 ****
9671 HC3   -27.786136  -10.446910    4.791355 H    1561 MOH     0.0372 ****
9672 O1    -29.279164   -9.345865    3.922321 O    1561 MOH    -0.6497 ****
9673 HO1   -28.863472   -8.668581    4.460429 H    1561 MOH     0.4215 ****
9674 HC1   -29.043028   -8.223182   -7.010964 H    1562 MOH     0.0372 ****
9675 C1    -29.890578   -8.887810   -6.841258 C    1562 MOH     0.1166 ****
9676 HC2   -30.756026   -8.244003   -6.684988 H    1562 MOH     0.0372 ****
9677 HC3   -29.657906   -9.489568   -5.963032 H    1562 MOH     0.0372 ****
9678 O1    -30.023946   -9.589589   -8.056775 O    1562 MOH    -0.6497 ****
9679 HO1   -29.178128   -9.995388   -8.261836 H    1562 MOH     0.4215 ****
9680 HC1   -18.091848  -21.837038    2.969848 H    1563 MOH     0.0372 ****
9681 C1    -17.707910  -21.240179    2.142534 C    1563 MOH     0.1166 ****
9682 HC2   -17.020286  -21.857450    1.564120 H    1563 MOH     0.0372 ****
9683 HC3   -17.206770  -20.378367    2.584475 H    1563 MOH     0.0372 ****
9684 O1    -18.773121  -20.800495    1.355524 O    1563 MOH    -0.6497 ****
9685 HO1   -19.302552  -21.556571    1.093894 H    1563 MOH     0.4215 ****
9686 HC1   -27.625633  -12.840878    7.570285 H    1564 MOH     0.0372 ****
9687 C1    -27.562125  -13.763928    6.993993 C    1564 MOH     0.1166 ****
9688 HC2   -26.530400  -13.968052    6.708322 H    1564 MOH     0.0372 ****
9689 HC3   -28.179312  -13.652068    6.103038 H    1564 MOH     0.0372 ****
9690 O1    -28.080008  -14.817208    7.759083 O    1564 MOH    -0.6497 ****
9691 HO1   -27.830015  -15.641870    7.334818 H    1564 MOH     0.4215 ****
9692 HC1   -18.199813  -16.380391    1.705541 H    1565 MOH     0.0372 ****
9693 C1    -17.559531  -17.255675    1.814436 C    1565 MOH     0.1166 ****
9694 HC2   -17.709642  -17.656575    2.817113 H    1565 MOH     0.0372 ****
9695 HC3   -16.520878  -16.942957    1.708370 H    1565 MOH     0.0372 ****
9696 O1    -17.938850  -18.197504    0.811051 O    1565 MOH    -0.6497 ****
9697 HO1   -18.009864  -19.070747    1.203496 H    1565 MOH     0.4215 ****
9698 HC1   -20.064077  -14.166869    6.126373 H    1566 MOH     0.0372 ****
9699 C1    -19.205557  -13.805161    5.560688 C    1566 MOH     0.1166 ****
9700 HC2   -19.553699  -13.285869    4.668319 H    1566 MOH     0.0372 ****
9701 HC3   -18.576245  -14.645744    5.267238 H    1566 MOH     0.0372 ****
9702 O1    -18.456156  -12.915588    6.356183 O    1566 MOH    -0.6497 ****
9703 HO1   -18.288725  -13.334042    7.204004 H    1566 MOH     0.4215 ****
9704 HC1   -19.265024  -12.845777   -3.805649 H    1567 MOH     0.0372 ****
9705 C1    -19.711893  -12.431814   -4.709331 C    1567 MOH     0.1166 ****
9706 HC2   -20.739576  -12.112972   -4.537504 H    1567 MOH     0.0372 ****
9707 HC3   -19.681293  -13.204219   -5.478663 H    1567 MOH     0.0372 ****
9708 O1    -18.901293  -11.367510   -5.097533 O    1567 MOH    -0.6497 ****
9709 HO1   -18.719428  -10.821274   -4.329615 H    1567 MOH     0.4215 ****
9710 HC1   -26.039074  -15.098083   -9.211480 H    1568 MOH     0.0372 ****
9711 C1    -26.963412  -14.582874   -9.473110 C    1568 MOH     0.1166 ****
9712 HC2   -27.676440  -14.629822   -8.649330 H    1568 MOH     0.0372 ****
9713 HC3   -27.399312  -15.029089  -10.366186 H    1568 MOH     0.0372 ****
9714 O1    -26.725544  -13.233613   -9.752417 O    1568 MOH    -0.6497 ****
9715 HO1   -26.220940  -13.203403  -10.568418 H    1568 MOH     0.4215 ****
9716 HC1   -27.482450  -10.018658   11.427552 H    1569 MOH     0.0372 ****
9717 C1    -27.044819  -10.922111   11.002581 C    1569 MOH     0.1166 ****
9718 HC2   -26.801177  -10.726969    9.958892 H    1569 MOH     0.0372 ****
9719 HC3   -27.750341  -11.748406   11.095919 H    1569 MOH     0.0372 ****
9720 O1    -25.908593  -11.219724   11.749993 O    1569 MOH    -0.6497 ****
9721 HO1   -25.281014  -10.493859   11.701910 H    1569 MOH     0.4215 ****
9722 HC1   -30.702333  -17.216484   10.794692 H    1570 MOH     0.0372 ****
9723 C1    -31.112829  -18.173009   11.117840 C    1570 MOH     0.1166 ****
9724 HC2   -30.333983  -18.935617   11.139053 H    1570 MOH     0.0372 ****
9725 HC3   -31.898025  -18.451843   10.415683 H    1570 MOH     0.0372 ****
9726 O1    -31.708654  -18.028489   12.373661 O    1570 MOH    -0.6497 ****
9727 HO1   -31.088003  -17.579416   12.952075 H    1570 MOH     0.4215 ****
9728 HC1   -25.501561  -12.232588    7.625439 H    1571 MOH     0.0372 ****
9729 C1    -24.576069  -11.932934    8.119000 C    1571 MOH     0.1166 ****
9730 HC2   -24.132087  -12.786990    8.630945 H    1571 MOH     0.0372 ****
9731 HC3   -24.822020  -11.180941    8.868533 H    1571 MOH     0.0372 ****
9732 O1    -23.693878  -11.433647    7.092988 O    1571 MOH    -0.6497 ****
9733 HO1   -23.884403  -10.495492    7.018035 H    1571 MOH     0.4215 ****
9734 HC1   -27.084656   -8.363619    2.973384 H    1572 MOH     0.0372 ****
9735 C1    -26.138956   -8.020691    3.393405 C    1572 MOH     0.1166 ****
9736 HC2   -26.252694   -7.046202    3.869288 H    1572 MOH     0.0372 ****
9737 HC3   -25.409185   -7.907198    2.591546 H    1572 MOH     0.0372 ****
9738 O1    -25.697283   -8.942924    4.365677 O    1572 MOH    -0.6497 ****
9739 HO1   -24.865899   -9.331168    4.083541 H    1572 MOH     0.4215 ****
9740 HC1   -27.166640  -16.429381   -1.955858 H    1573 MOH     0.0372 ****
9741 C1    -26.384907  -15.756179   -2.307290 C    1573 MOH     0.1166 ****
9742 HC2   -25.825455  -16.190964   -3.135312 H    1573 MOH     0.0372 ****
9743 HC3   -25.699593  -15.551239   -1.485631 H    1573 MOH     0.0372 ****
9744 O1    -26.958793  -14.556746   -2.752767 O    1573 MOH    -0.6497 ****
9745 HO1   -26.763649  -13.913347   -2.066873 H    1573 MOH     0.4215 ****
9746 HC1   -22.266783    6.311519   -1.684329 H    1574 MOH     0.0372 ****
9747 C1    -23.303127    6.450323   -1.377444 C    1574 MOH     0.1166 ****
9748 HC2   -23.866621    6.814480   -2.235872 H    1574 MOH     0.0372 ****
9749 HC3   -23.372986    7.200275   -0.589020 H    1574 MOH     0.0372 ****
9750 O1    -23.828516    5.207615   -0.960251 O    1574 MOH    -0.6497 ****
9751 HO1   -24.591195    5.359892   -0.398101 H    1574 MOH     0.4215 ****
9752 HC1   -27.768354   -4.229452    2.406991 H    1575 MOH     0.0372 ****
9753 C1    -28.569139   -4.623412    3.032781 C    1575 MOH     0.1166 ****
9754 HC2   -29.134942   -5.353768    2.453660 H    1575 MOH     0.0372 ****
9755 HC3   -29.241752   -3.846515    3.394112 H    1575 MOH     0.0372 ****
9756 O1    -28.072040   -5.364383    4.077177 O    1575 MOH    -0.6497 ****
9757 HO1   -27.527599   -4.768340    4.596194 H    1575 MOH     0.4215 ****
9758 HC1   -21.217161    4.860196    2.984697 H    1576 MOH     0.0372 ****
9759 C1    -20.613252    5.411739    3.705239 C    1576 MOH     0.1166 ****
9760 HC2   -19.801498    4.776505    4.058793 H    1576 MOH     0.0372 ****
9761 HC3   -21.261617    5.697513    4.533968 H    1576 MOH     0.0372 ****
9762 O1    -20.108648    6.535647    3.049751 O    1576 MOH    -0.6497 ****
9763 HO1   -19.295739    6.797334    3.488865 H    1576 MOH     0.4215 ****
9764 HC1   -13.816685    6.343770  -10.595995 H    1577 MOH     0.0372 ****
9765 C1    -13.279172    6.686290  -11.480586 C    1577 MOH     0.1166 ****
9766 HC2   -13.607106    6.112293  -12.347499 H    1577 MOH     0.0372 ****
9767 HC3   -12.219734    6.501762  -11.302395 H    1577 MOH     0.0372 ****
9768 O1    -13.539557    8.066986  -11.749286 O    1577 MOH    -0.6497 ****
9769 HO1   -13.280326    8.271927  -12.650140 H    1577 MOH     0.4215 ****
9770 HC1   -23.155325   -0.461321    7.369467 H    1578 MOH     0.0372 ****
9771 C1    -24.175503   -0.754035    7.617661 C    1578 MOH     0.1166 ****
9772 HC2   -24.336584   -0.696472    8.693171 H    1578 MOH     0.0372 ****
9773 HC3   -24.383927   -1.776288    7.300877 H    1578 MOH     0.0372 ****
9774 O1    -25.061736    0.138396    7.016620 O    1578 MOH    -0.6497 ****
9775 HO1   -24.610248    0.514801    6.257188 H    1578 MOH     0.4215 ****
9776 HC1   -19.358093    3.486849   -7.527152 H    1579 MOH     0.0372 ****
9777 C1    -19.312482    3.032060   -8.517101 C    1579 MOH     0.1166 ****
9778 HC2   -18.395072    2.453164   -8.625996 H    1579 MOH     0.0372 ****
9779 HC3   -19.322874    3.809773   -9.280070 H    1579 MOH     0.0372 ****
9780 O1    -20.415798    2.195559   -8.734183 O    1579 MOH    -0.6497 ****
9781 HO1   -20.156568    1.308027   -8.476796 H    1579 MOH     0.4215 ****
9782 HC1   -28.556437    2.325382    3.573717 H    1580 MOH     0.0372 ****
9783 C1    -27.516052    2.352735    3.247741 C    1580 MOH     0.1166 ****
9784 HC2   -26.931774    1.713010    3.910300 H    1580 MOH     0.0372 ****
9785 HC3   -27.174838    3.386420    3.301481 H    1580 MOH     0.0372 ****
9786 O1    -27.449079    1.870594    1.924744 O    1580 MOH    -0.6497 ****
9787 HO1   -28.043750    1.117784    1.880904 H    1580 MOH     0.4215 ****
9788 HC1   -25.676037   -2.356817   -0.586192 H    1581 MOH     0.0372 ****
9789 C1    -24.761514   -2.050631   -1.093894 C    1581 MOH     0.1166 ****
9790 HC2   -24.166266   -1.396209   -0.456791 H    1581 MOH     0.0372 ****
9791 HC3   -25.036910   -1.504395   -1.996163 H    1581 MOH     0.0372 ****
9792 O1    -24.059456   -3.190052   -1.491996 O    1581 MOH    -0.6497 ****
9793 HO1   -23.124726   -2.991235   -1.402193 H    1581 MOH     0.4215 ****
9794 HC1   -28.730220   -2.694439   -5.441894 H    1582 MOH     0.0372 ****
9795 C1    -28.687496   -2.452756   -4.379820 C    1582 MOH     0.1166 ****
9796 HC2   -27.650575   -2.514809   -4.048894 H    1582 MOH     0.0372 ****
9797 HC3   -29.285053   -3.154535   -3.797871 H    1582 MOH     0.0372 ****
9798 O1    -29.121086   -1.159017   -4.110412 O    1582 MOH    -0.6497 ****
9799 HO1   -29.890694   -0.967548   -4.651349 H    1582 MOH     0.4215 ****
9800 HC1   -25.420848   -0.585020   -5.055107 H    1583 MOH     0.0372 ****
9801 C1    -25.961248    0.284549   -5.428459 C    1583 MOH     0.1166 ****
9802 HC2   -26.404653   -0.044907   -6.368204 H    1583 MOH     0.0372 ****
9803 HC3   -25.238405    1.087573   -5.574830 H    1583 MOH     0.0372 ****
9804 O1    -26.952558    0.622987   -4.434974 O    1583 MOH    -0.6497 ****
9805 HO1   -27.588221   -0.091039   -4.352242 H    1583 MOH     0.4215 ****
9806 HC1   -26.977384   -7.357043   -9.364215 H    1584 MOH     0.0372 ****
9807 C1    -26.564579   -6.349486   -9.400985 C    1584 MOH     0.1166 ****
9808 HC2   -26.650026   -5.878775   -8.421642 H    1584 MOH     0.0372 ****
9809 HC3   -27.141352   -5.761608  -10.115163 H    1584 MOH     0.0372 ****
9810 O1    -25.225126   -6.405007   -9.832320 O    1584 MOH    -0.6497 ****
9811 HO1   -25.191640   -7.065553  -10.528113 H    1584 MOH     0.4215 ****
9812 HC1   -10.864115   -9.200283   -3.415326 H    1585 MOH     0.0372 ****
9813 C1    -11.544234   -9.768973   -2.781051 C    1585 MOH     0.1166 ****
9814 HC2   -11.189741   -9.731823   -1.750796 H    1585 MOH     0.0372 ****
9815 HC3   -11.599082  -10.805516   -3.112684 H    1585 MOH     0.0372 ****
9816 O1    -12.776877   -9.145986   -2.863075 O    1585 MOH    -0.6497 ****
9817 HO1   -12.674686   -8.253147   -2.527200 H    1585 MOH     0.4215 ****
9818 HC1   -20.803778   11.055364    2.776101 H    1586 MOH     0.0372 ****
9819 C1    -21.258152   11.353385    1.831406 C    1586 MOH     0.1166 ****
9820 HC2   -22.338952   11.218663    1.879490 H    1586 MOH     0.0372 ****
9821 HC3   -20.835532   10.728765    1.043689 H    1586 MOH     0.0372 ****
9822 O1    -20.976405   12.710811    1.571898 O    1586 MOH    -0.6497 ****
9823 HO1   -21.246028   12.905137    0.671044 H    1586 MOH     0.4215 ****
9824 HC1   -19.762815   13.969032    5.899392 H    1587 MOH     0.0372 ****
9825 C1    -20.104607   13.299505    5.110260 C    1587 MOH     0.1166 ****
9826 HC2   -20.602860   12.423404    5.526039 H    1587 MOH     0.0372 ****
9827 HC3   -19.232230   12.981479    4.539625 H    1587 MOH     0.0372 ****
9828 O1    -20.885761   14.029453    4.188193 O    1587 MOH    -0.6497 ****
9829 HO1   -20.858626   13.542412    3.361585 H    1587 MOH     0.4215 ****
9830 HC1   -11.668365    8.571173   10.994803 H    1588 MOH     0.0372 ****
9831 C1    -12.379660    7.745287   10.984197 C    1588 MOH     0.1166 ****
9832 HC2   -12.017661    7.014114   10.260826 H    1588 MOH     0.0372 ****
9833 HC3   -13.368661    8.117609   10.714082 H    1588 MOH     0.0372 ****
9834 O1    -12.443169    7.171698   12.269010 O    1588 MOH    -0.6497 ****
9835 HO1   -12.719142    7.855514   12.883485 H    1588 MOH     0.4215 ****
9836 HC1   -15.738684   10.100879   -6.013236 H    1589 MOH     0.0372 ****
9837 C1    -16.319498   10.482183   -5.173193 C    1589 MOH     0.1166 ****
9838 HC2   -16.022163   11.489332   -4.881158 H    1589 MOH     0.0372 ****
9839 HC3   -16.111652    9.826945   -4.326787 H    1589 MOH     0.0372 ****
9840 O1    -17.698788   10.438501   -5.458157 O    1589 MOH    -0.6497 ****
9841 HO1   -18.104088    9.763666   -4.908736 H    1589 MOH     0.4215 ****
9842 HC1   -27.160982   -0.255972    5.012680 H    1590 MOH     0.0372 ****
9843 C1    -27.552425   -1.025111    4.347999 C    1590 MOH     0.1166 ****
9844 HC2   -27.053017   -0.991227    3.379970 H    1590 MOH     0.0372 ****
9845 HC3   -28.623987   -0.862629    4.223549 H    1590 MOH     0.0372 ****
9846 O1    -27.411552   -2.291906    4.932777 O    1590 MOH    -0.6497 ****
9847 HO1   -27.857843   -2.292314    5.782012 H    1590 MOH     0.4215 ****
9848 HC1   -16.806204    1.103087   -0.236174 H    1591 MOH     0.0372 ****
9849 C1    -17.869684    1.303945   -0.367696 C    1591 MOH     0.1166 ****
9850 HC2   -18.451653    0.382937   -0.340826 H    1591 MOH     0.0372 ****
9851 HC3   -18.034806    1.774655   -1.337139 H    1591 MOH     0.0372 ****
9852 O1    -18.320017    2.194335    0.611647 O    1591 MOH    -0.6497 ****
9853 HO1   -18.209743    3.088807    0.281428 H    1591 MOH     0.4215 ****
9854 HC1   -20.204488  -10.279692    0.855599 H    1592 MOH     0.0372 ****
9855 C1    -20.611520   -9.279075    0.710642 C    1592 MOH     0.1166 ****
9856 HC2   -21.657101   -9.324799    0.405172 H    1592 MOH     0.0372 ****
9857 HC3   -20.054954   -8.821429   -0.106066 H    1592 MOH     0.0372 ****
9858 O1    -20.456790   -8.455230    1.867469 O    1592 MOH    -0.6497 ****
9859 HO1   -20.173889   -7.575047    1.607254 H    1592 MOH     0.4215 ****
9860 HC1   -20.798582   -5.874285    3.078036 H    1593 MOH     0.0372 ****
9861 C1    -20.710247   -4.888365    3.534120 C    1593 MOH     0.1166 ****
9862 HC2   -21.311269   -4.856522    4.442045 H    1593 MOH     0.0372 ****
9863 HC3   -21.062431   -4.153110    2.810749 H    1593 MOH     0.0372 ****
9864 O1    -19.370217   -4.684649    3.841711 O    1593 MOH    -0.6497 ****
9865 HO1   -18.885243   -5.151277    3.157939 H    1593 MOH     0.4215 ****
9866 HC1   -10.853723    5.917967   -4.699432 H    1594 MOH     0.0372 ****
9867 C1    -10.433412    6.801416   -4.218599 C    1594 MOH     0.1166 ****
9868 HC2   -10.179955    7.543204   -4.975911 H    1594 MOH     0.0372 ****
9869 HC3    -9.546602    6.518500   -3.652207 H    1594 MOH     0.0372 ****
9870 O1    -11.438579    7.297846   -3.395527 O    1594 MOH    -0.6497 ****
9871 HO1   -11.082354    7.494214   -2.526493 H    1594 MOH     0.4215 ****
9872 HC1   -16.502518    8.225795    7.876462 H    1595 MOH     0.0372 ****
9873 C1    -16.545242    9.099854    7.226631 C    1595 MOH     0.1166 ****
9874 HC2   -15.744457    9.800000    7.464926 H    1595 MOH     0.0372 ****
9875 HC3   -17.484591    9.615880    7.421793 H    1595 MOH     0.0372 ****
9876 O1    -16.544665    8.745495    5.835045 O    1595 MOH    -0.6497 ****
9877 HO1   -16.435546    9.537905    5.304008 H    1595 MOH     0.4215 ****
9878 HC1   -18.835013  -10.711619    3.891916 H    1596 MOH     0.0372 ****
9879 C1    -17.758832  -10.703454    3.722210 C    1596 MOH     0.1166 ****
9880 HC2   -17.338521   -9.843275    4.241933 H    1596 MOH     0.0372 ****
9881 HC3   -17.555028  -10.643033    2.653065 H    1596 MOH     0.0372 ****
9882 O1    -17.165316  -11.848182    4.222842 O    1596 MOH    -0.6497 ****
9883 HO1   -17.627197  -12.109461    5.021872 H    1596 MOH     0.4215 ****
9884 HC1   -22.188841    3.956334   -3.509371 H    1597 MOH     0.0372 ****
9885 C1    -22.771387    3.083499   -3.213801 C    1597 MOH     0.1166 ****
9886 HC2   -22.435370    2.168615   -3.700997 H    1597 MOH     0.0372 ****
9887 HC3   -23.791565    3.263537   -3.551091 H    1597 MOH     0.0372 ****
9888 O1    -22.778316    2.936530   -1.810901 O    1597 MOH    -0.6497 ****
9889 HO1   -22.964800    3.798342   -1.429770 H    1597 MOH     0.4215 ****
9890 HC1   -23.019648    0.941829    0.761554 H    1598 MOH     0.0372 ****
9891 C1    -21.987923    0.658096    0.555786 C    1598 MOH     0.1166 ****
9892 HC2   -21.717146   -0.167790    1.212688 H    1598 MOH     0.0372 ****
9893 HC3   -21.339559    1.508886    0.766504 H    1598 MOH     0.0372 ****
9894 O1    -21.849936    0.338846   -0.806102 O    1598 MOH    -0.6497 ****
9895 HO1   -22.146694    1.131664   -1.258650 H    1598 MOH     0.4215 ****
9896 HC1   -17.525583    0.214330   -4.924999 H    1599 MOH     0.0372 ****
9897 C1    -17.511149    0.921825   -5.754435 C    1599 MOH     0.1166 ****
9898 HC2   -18.501882    1.352935   -5.895857 H    1599 MOH     0.0372 ****
9899 HC3   -17.172244    0.428661   -6.665189 H    1599 MOH     0.0372 ****
9900 O1    -16.634154    1.973472   -5.447551 O    1599 MOH    -0.6497 ****
9901 HO1   -16.437855    1.980412   -4.507806 H    1599 MOH     0.4215 ****
9902 HC1   -11.394123   -3.620346    8.404671 H    1600 MOH     0.0372 ****
9903 C1    -11.319068   -2.578496    8.094958 C    1600 MOH     0.1166 ****
9904 HC2   -10.280414   -2.353960    7.851714 H    1600 MOH     0.0372 ****
9905 HC3   -11.681066   -1.977146    8.930051 H    1600 MOH     0.0372 ****
9906 O1    -12.207032   -2.420912    7.018742 O    1600 MOH    -0.6497 ****
9907 HO1   -11.839838   -2.941429    6.301028 H    1600 MOH     0.4215 ****
9908 HC1   -21.669226   -7.532997    8.953386 H    1601 MOH     0.0372 ****
9909 C1    -20.676761   -7.512177    8.502959 C    1601 MOH     0.1166 ****
9910 HC2   -20.153681   -6.600967    8.792873 H    1601 MOH     0.0372 ****
9911 HC3   -20.736805   -7.567699    7.416843 H    1601 MOH     0.0372 ****
9912 O1    -19.941794   -8.576888    8.951265 O    1601 MOH    -0.6497 ****
9913 HO1   -20.388663   -9.372972    8.655694 H    1601 MOH     0.4215 ****
9914 HC1   -23.729212    4.696488    1.958686 H    1602 MOH     0.0372 ****
9915 C1    -23.968812    4.063704    2.812871 C    1602 MOH     0.1166 ****
9916 HC2   -25.014393    4.188219    3.093592 H    1602 MOH     0.0372 ****
9917 HC3   -23.336613    4.371114    3.646549 H    1602 MOH     0.0372 ****
9918 O1    -23.666858    2.713626    2.496794 O    1602 MOH    -0.6497 ****
9919 HO1   -24.129315    2.440508    1.701299 H    1602 MOH     0.4215 ****
9920 HC1   -26.322669   -3.241900   -7.141072 H    1603 MOH     0.0372 ****
9921 C1    -25.534586   -3.207607   -7.893433 C    1603 MOH     0.1166 ****
9922 HC2   -25.954897   -2.816097   -8.820450 H    1603 MOH     0.0372 ****
9923 HC3   -25.136791   -4.205366   -8.080109 H    1603 MOH     0.0372 ****
9924 O1    -24.528264   -2.307419   -7.543415 O    1603 MOH    -0.6497 ****
9925 HO1   -23.700921   -2.772414   -7.686958 H    1603 MOH     0.4215 ****
9926 HC1   -23.118952   -3.862437   -9.859190 H    1604 MOH     0.0372 ****
9927 C1    -22.688826   -4.432352   -9.034704 C    1604 MOH     0.1166 ****
9928 HC2   -21.913445   -5.076159   -9.449775 H    1604 MOH     0.0372 ****
9929 HC3   -23.434185   -5.081058   -8.574377 H    1604 MOH     0.0372 ****
9930 O1    -22.119559   -3.537880   -8.094959 O    1604 MOH    -0.6497 ****
9931 HO1   -21.705021   -4.077176   -7.418257 H    1604 MOH     0.4215 ****
9932 HC1   -12.771681    4.852847   -7.573821 H    1605 MOH     0.0372 ****
9933 C1    -12.028054    4.331923   -8.176276 C    1605 MOH     0.1166 ****
9934 HC2   -11.112376    4.921433   -8.224359 H    1605 MOH     0.0372 ****
9935 HC3   -12.364071    4.210673   -9.206530 H    1605 MOH     0.0372 ****
9936 O1    -11.689726    3.103095   -7.592206 O    1605 MOH    -0.6497 ****
9937 HO1   -12.393516    2.831610   -6.998943 H    1605 MOH     0.4215 ****
9938 HC1   -22.967687   -0.701779    3.700290 H    1606 MOH     0.0372 ****
9939 C1    -23.977472   -0.302512    3.792213 C    1606 MOH     0.1166 ****
9940 HC2   -24.590041   -1.043891    4.305573 H    1606 MOH     0.0372 ****
9941 HC3   -24.378731   -0.110635    2.796607 H    1606 MOH     0.0372 ****
9942 O1    -23.909345    0.886307    4.554475 O    1606 MOH    -0.6497 ****
9943 HO1   -23.575059    1.579513    3.980304 H    1606 MOH     0.4215 ****
9944 HC1   -10.509622   -7.357859   -0.576292 H    1607 MOH     0.0372 ****
9945 C1     -9.638401   -6.854489   -0.995606 C    1607 MOH     0.1166 ****
9946 HC2    -9.936314   -5.905312   -1.438962 H    1607 MOH     0.0372 ****
9947 HC3    -9.199615   -7.466045   -1.784738 H    1607 MOH     0.0372 ****
9948 O1     -8.669607   -6.579329   -0.009900 O    1607 MOH    -0.6497 ****
9949 HO1    -8.239481   -7.417463    0.173241 H    1607 MOH     0.4215 ****
9950 HC1   -27.223913    6.534422    2.124148 H    1608 MOH     0.0372 ****
9951 C1    -26.361351    6.997376    1.644730 C    1608 MOH     0.1166 ****
9952 HC2   -25.574423    7.112093    2.390728 H    1608 MOH     0.0372 ****
9953 HC3   -26.678317    7.989419    1.322289 H    1608 MOH     0.0372 ****
9954 O1    -25.978568    6.209865    0.485782 O    1608 MOH    -0.6497 ****
9955 HO1   -26.672543    6.255997   -0.175363 H    1608 MOH     0.4215 ****
9956 HC1   -20.537619    1.971839    8.384872 H    1609 MOH     0.0372 ****
9957 C1    -19.929669    2.842633    8.136678 C    1609 MOH     0.1166 ****
9958 HC2   -18.880047    2.573189    8.022126 H    1609 MOH     0.0372 ****
9959 HC3   -19.986250    3.564824    8.951972 H    1609 MOH     0.0372 ****
9960 O1    -20.324577    3.404791    6.926818 O    1609 MOH    -0.6497 ****
9961 HO1   -20.042830    2.806299    6.231025 H    1609 MOH     0.4215 ****
9962 HC1   -19.064799   -1.034093  -12.324164 H    1610 MOH     0.0372 ****
9963 C1    -18.141038   -0.845891  -12.872172 C    1610 MOH     0.1166 ****
9964 HC2   -17.550409   -1.760775  -12.834695 H    1610 MOH     0.0372 ****
9965 HC3   -17.618536   -0.022454  -12.384975 H    1610 MOH     0.0372 ****
9966 O1    -18.414125   -0.493572  -14.226282 O    1610 MOH    -0.6497 ****
9967 HO1   -17.632393   -0.071444  -14.589734 H    1610 MOH     0.4215 ****
9968 HC1   -21.478123   -5.772223   -1.413507 H    1611 MOH     0.0372 ****
9969 C1    -20.621335   -6.030236   -2.037175 C    1611 MOH     0.1166 ****
9970 HC2   -20.435428   -5.237009   -2.760545 H    1611 MOH     0.0372 ****
9971 HC3   -20.867286   -6.934097   -2.594375 H    1611 MOH     0.0372 ****
9972 O1    -19.457974   -6.220887   -1.236023 O    1611 MOH    -0.6497 ****
9973 HO1   -18.761690   -6.568715   -1.797466 H    1611 MOH     0.4215 ****
9974 HC1   -12.082902   -0.060421    4.956818 H    1612 MOH     0.0372 ****
9975 C1    -12.705286    0.834051    4.947626 C    1612 MOH     0.1166 ****
9976 HC2   -12.261303    1.621154    5.557152 H    1612 MOH     0.0372 ****
9977 HC3   -13.676966    0.556034    5.357041 H    1612 MOH     0.0372 ****
9978 O1    -12.884841    1.286799    3.626043 O    1612 MOH    -0.6497 ****
9979 HO1   -12.027476    1.562366    3.292996 H    1612 MOH     0.4215 ****
9980 HC1   -16.098950    5.586470   -6.523767 H    1613 MOH     0.0372 ****
9981 C1    -15.506012    5.248032   -7.373003 C    1613 MOH     0.1166 ****
9982 HC2   -15.138817    4.252314   -7.124808 H    1613 MOH     0.0372 ****
9983 HC3   -14.659039    5.917967   -7.525031 H    1613 MOH     0.0372 ****
9984 O1    -16.310260    5.197001   -8.543264 O    1613 MOH    -0.6497 ****
9985 HO1   -15.903229    4.546661   -9.120971 H    1613 MOH     0.4215 ****
9986 HC1   -16.454021    0.119209    2.797314 H    1614 MOH     0.0372 ****
9987 C1    -16.000224    0.998575    3.254105 C    1614 MOH     0.1166 ****
9988 HC2   -15.163066    1.315376    2.631851 H    1614 MOH     0.0372 ****
9989 HC3   -15.696537    0.749544    4.270925 H    1614 MOH     0.0372 ****
9990 O1    -16.950542    1.996334    3.218750 O    1614 MOH    -0.6497 ****
9991 HO1   -17.278477    2.051856    2.317896 H    1614 MOH     0.4215 ****
9992 HC1   -24.621218   11.591802    0.468104 H    1615 MOH     0.0372 ****
9993 C1    -25.528812   11.528115    1.067731 C    1615 MOH     0.1166 ****
9994 HC2   -26.139649   10.681408    0.755190 H    1615 MOH     0.0372 ****
9995 HC3   -26.077872   12.460146    0.935502 H    1615 MOH     0.0372 ****
9996 O1    -25.156999   11.344812    2.392142 O    1615 MOH    -0.6497 ****
9997 HO1   -24.629878   10.542196    2.390728 H    1615 MOH     0.4215 ****
9998 HC1    -9.091073    3.438267    8.174154 H    1616 MOH     0.0372 ****
9999 C1     -9.343952    4.302937    8.787923 C    1616 MOH     0.1166 ****
10000 HC2    -8.536239    4.486241    9.495737 H    1616 MOH     0.0372 ****
10001 HC3   -10.261939    4.070236    9.326738 H    1616 MOH     0.0372 ****
10002 O1     -9.536210    5.411331    7.931617 O    1616 MOH    -0.6497 ****
10003 HO1   -10.221525    5.140254    7.316434 H    1616 MOH     0.4215 ****
10004 HC1    -7.997571   -2.863453    3.575132 H    1617 MOH     0.0372 ****
10005 C1     -8.828956   -2.180046    3.405426 C    1617 MOH     0.1166 ****
10006 HC2    -9.750984   -2.640142    3.762515 H    1617 MOH     0.0372 ****
10007 HC3    -8.899393   -1.991843    2.334159 H    1617 MOH     0.0372 ****
10008 O1     -8.501021   -0.959383    4.057379 O    1617 MOH    -0.6497 ****
10009 HO1    -7.887875   -1.156567    4.769435 H    1617 MOH     0.4215 ****
10010 HC1   -15.491001   -0.634010   12.058292 H    1618 MOH     0.0372 ****
10011 C1    -16.382429   -0.007348   12.026472 C    1618 MOH     0.1166 ****
10012 HC2   -17.270972   -0.638092   11.986167 H    1618 MOH     0.0372 ****
10013 HC3   -16.373192    0.610740   11.128446 H    1618 MOH     0.0372 ****
10014 O1    -16.372037    0.840175   13.147943 O    1618 MOH    -0.6497 ****
10015 HO1   -15.616286    1.420296   13.031271 H    1618 MOH     0.4215 ****
10016 HC1   -13.834005    0.627886   10.644785 H    1619 MOH     0.0372 ****
10017 C1    -13.609416    1.693822   10.694990 C    1619 MOH     0.1166 ****
10018 HC2   -13.968528    2.241691    9.823834 H    1619 MOH     0.0372 ****
10019 HC3   -12.523420    1.740363   10.622865 H    1619 MOH     0.0372 ****
10020 O1    -13.970260    2.291906   11.961418 O    1619 MOH    -0.6497 ****
10021 HO1   -14.042429    3.240675   11.835553 H    1619 MOH     0.4215 ****
10022 HC1   -19.591920   -1.466020    7.094402 H    1620 MOH     0.0372 ****
10023 C1    -19.246664   -2.309052    6.496897 C    1620 MOH     0.1166 ****
10024 HC2   -18.506501   -2.841000    7.095816 H    1620 MOH     0.0372 ****
10025 HC3   -18.804991   -1.923258    5.578365 H    1620 MOH     0.0372 ****
10026 O1    -20.299174   -3.226794    6.163143 O    1620 MOH    -0.6497 ****
10027 HO1   -20.020313   -3.739963    5.401589 H    1620 MOH     0.4215 ****
10028 HC1   -14.526826  -13.145595   -2.650236 H    1621 MOH     0.0372 ****
10029 C1    -14.559735  -12.060471   -2.749231 C    1621 MOH     0.1166 ****
10030 HC2   -14.114597  -11.591394   -1.871712 H    1621 MOH     0.0372 ****
10031 HC3   -15.597233  -11.734689   -2.824185 H    1621 MOH     0.0372 ****
10032 O1    -13.873842  -11.683250   -3.914543 O    1621 MOH    -0.6497 ****
10033 HO1   -13.772229  -10.729990   -3.874238 H    1621 MOH     0.4215 ****
10034 HC1    -6.093470   -4.328657   -1.467247 H    1622 MOH     0.0372 ****
10035 C1     -6.999333   -4.004099   -1.978485 C    1622 MOH     0.1166 ****
10036 HC2    -7.884988   -4.396834   -1.479267 H    1622 MOH     0.0372 ****
10037 HC3    -6.991827   -4.352335   -3.011568 H    1622 MOH     0.0372 ****
10038 O1     -7.092286   -2.611973   -1.964343 O    1622 MOH    -0.6497 ****
10039 HO1    -6.822086   -2.326607   -1.088237 H    1622 MOH     0.4215 ****
10040 HC1   -13.559187    0.235151    0.517602 H    1623 MOH     0.0372 ****
10041 C1    -12.895811   -0.586653    0.787010 C    1623 MOH     0.1166 ****
10042 HC2   -11.879675   -0.200450    0.864791 H    1623 MOH     0.0372 ****
10043 HC3   -12.909667   -1.369265    0.028284 H    1623 MOH     0.0372 ****
10044 O1    -13.273976   -1.013680    2.073944 O    1623 MOH    -0.6497 ****
10045 HO1   -13.220282   -0.244541    2.645286 H    1623 MOH     0.4215 ****
10046 HC1   -12.634271    8.645474    6.551344 H    1624 MOH     0.0372 ****
10047 C1    -12.946041    8.226611    7.508767 C    1624 MOH     0.1166 ****
10048 HC2   -13.473161    8.972889    8.101322 H    1624 MOH     0.0372 ****
10049 HC3   -12.053457    7.893073    8.036976 H    1624 MOH     0.0372 ****
10050 O1    -13.760682    7.112502    7.281785 O    1624 MOH    -0.6497 ****
10051 HO1   -14.446574    7.353777    6.655996 H    1624 MOH     0.4215 ****
10052 HC1   -19.954495   14.039659   -1.168141 H    1625 MOH     0.0372 ****
10053 C1    -20.862090   14.419330   -1.637660 C    1625 MOH     0.1166 ****
10054 HC2   -20.731609   14.399325   -2.720240 H    1625 MOH     0.0372 ****
10055 HC3   -21.005273   15.450157   -1.315926 H    1625 MOH     0.0372 ****
10056 O1    -22.002357   13.626103   -1.263600 O    1625 MOH    -0.6497 ****
10057 HO1   -22.775429   14.131106   -1.525937 H    1625 MOH     0.4215 ****
10058 HC1   -27.072647   -6.137197   -1.163191 H    1626 MOH     0.0372 ****
10059 C1    -26.428901   -5.352952   -1.559878 C    1626 MOH     0.1166 ****
10060 HC2   -26.394838   -4.551560   -0.822365 H    1626 MOH     0.0372 ****
10061 HC3   -26.827850   -4.912860   -2.474874 H    1626 MOH     0.0372 ****
10062 O1    -25.117162   -5.817538   -1.790395 O    1626 MOH    -0.6497 ****
10063 HO1   -24.674911   -5.030435   -2.115664 H    1626 MOH     0.4215 ****
10064 HC1   -17.796938    5.569731    5.343606 H    1627 MOH     0.0372 ****
10065 C1    -17.214968    5.812231    4.454065 C    1627 MOH     0.1166 ****
10066 HC2   -17.251342    4.990427    3.739180 H    1627 MOH     0.0372 ****
10067 HC3   -16.187862    5.955526    4.791355 H    1627 MOH     0.0372 ****
10068 O1    -17.680890    7.056572    3.922321 O    1627 MOH    -0.6497 ****
10069 HO1   -17.265198    7.733856    4.460429 H    1627 MOH     0.4215 ****
10070 HC1   -20.302638    1.003474    3.015103 H    1628 MOH     0.0372 ****
10071 C1    -20.139825    0.779346    4.069399 C    1628 MOH     0.1166 ****
10072 HC2   -19.572290   -0.147378    4.161323 H    1628 MOH     0.0372 ****
10073 HC3   -21.123630    0.661771    4.523362 H    1628 MOH     0.0372 ****
10074 O1    -19.447005    1.855897    4.661248 O    1628 MOH    -0.6497 ****
10075 HO1   -18.608692    1.946528    4.203043 H    1628 MOH     0.4215 ****
10076 HC1   -22.367242   -5.062687    7.774639 H    1629 MOH     0.0372 ****
10077 C1    -22.760418   -4.627903    8.693171 C    1629 MOH     0.1166 ****
10078 HC2   -22.944593   -3.563191    8.551749 H    1629 MOH     0.0372 ****
10079 HC3   -22.061247   -4.772014    9.516950 H    1629 MOH     0.0372 ****
10080 O1    -23.924933   -5.288857    9.021975 O    1629 MOH    -0.6497 ****
10081 HO1   -24.349286   -4.839375    9.756659 H    1629 MOH     0.4215 ****
10082 HC1   -20.580343    0.898554   -6.320828 H    1630 MOH     0.0372 ****
10083 C1    -20.713711   -0.124108   -6.673674 C    1630 MOH     0.1166 ****
10084 HC2   -21.712527   -0.201675   -7.102181 H    1630 MOH     0.0372 ****
10085 HC3   -20.640388   -0.840992   -5.856259 H    1630 MOH     0.0372 ****
10086 O1    -19.793415   -0.401308   -7.685544 O    1630 MOH    -0.6497 ****
10087 HO1   -19.677367   -1.349261   -7.777468 H    1630 MOH     0.4215 ****
10088 HC1   -17.444754    8.179254   -7.010964 H    1631 MOH     0.0372 ****
10089 C1    -18.292304    7.514626   -6.841258 C    1631 MOH     0.1166 ****
10090 HC2   -19.157752    8.158434   -6.684988 H    1631 MOH     0.0372 ****
10091 HC3   -18.059632    6.912868   -5.963032 H    1631 MOH     0.0372 ****
10092 O1    -18.425672    6.812847   -8.056775 O    1631 MOH    -0.6497 ****
10093 HO1   -17.579854    6.407049   -8.261836 H    1631 MOH     0.4215 ****
10094 HC1   -19.556124  -10.626703   -1.600890 H    1632 MOH     0.0372 ****
10095 C1    -18.520935  -10.322558   -1.757160 C    1632 MOH     0.1166 ****
10096 HC2   -17.932037  -11.225195   -1.924745 H    1632 MOH     0.0372 ****
10097 HC3   -18.147966   -9.765707   -0.898733 H    1632 MOH     0.0372 ****
10098 O1    -18.523244   -9.590977   -2.933786 O    1632 MOH    -0.6497 ****
10099 HO1   -17.885849   -8.881850   -2.824185 H    1632 MOH     0.4215 ****
10100 HC1    -6.493574   -5.434601    2.969848 H    1633 MOH     0.0372 ****
10101 C1     -6.109636   -4.837742    2.142534 C    1633 MOH     0.1166 ****
10102 HC2    -5.422012   -5.455014    1.564120 H    1633 MOH     0.0372 ****
10103 HC3    -5.608496   -3.975930    2.584475 H    1633 MOH     0.0372 ****
10104 O1     -7.174847   -4.398059    1.355524 O    1633 MOH    -0.6497 ****
10105 HO1    -7.704277   -5.154135    1.093894 H    1633 MOH     0.4215 ****
10106 HC1   -16.027359    3.561558    7.570285 H    1634 MOH     0.0372 ****
10107 C1    -15.963850    2.638509    6.993993 C    1634 MOH     0.1166 ****
10108 HC2   -14.932126    2.434385    6.708322 H    1634 MOH     0.0372 ****
10109 HC3   -16.581038    2.750369    6.103038 H    1634 MOH     0.0372 ****
10110 O1    -16.481734    1.585228    7.759083 O    1634 MOH    -0.6497 ****
10111 HO1   -16.231741    0.760567    7.334818 H    1634 MOH     0.4215 ****
10112 HC1   -28.078391    2.869169   -0.912168 H    1635 MOH     0.0372 ****
10113 C1    -28.244668    3.939596   -0.793374 C    1635 MOH     0.1166 ****
10114 HC2   -27.891330    4.260479    0.186676 H    1635 MOH     0.0372 ****
10115 HC3   -29.311611    4.152702   -0.865499 H    1635 MOH     0.0372 ****
10116 O1    -27.557621    4.654030   -1.803123 O    1635 MOH    -0.6497 ****
10117 HO1   -27.648265    4.124124   -2.597911 H    1635 MOH     0.4215 ****
10118 HC1   -21.415192    9.185178   -3.761101 H    1636 MOH     0.0372 ****
10119 C1    -20.543970    8.529940   -3.780193 C    1636 MOH     0.1166 ****
10120 HC2   -20.544547    7.958392   -4.707917 H    1636 MOH     0.0372 ****
10121 HC3   -20.571683    7.820812   -2.952171 H    1636 MOH     0.0372 ****
10122 O1    -19.365598    9.314593   -3.706654 O    1636 MOH    -0.6497 ****
10123 HO1   -19.395043    9.825312   -2.894188 H    1636 MOH     0.4215 ****
10124 HC1   -25.600404    2.420096   -1.236023 H    1637 MOH     0.0372 ****
10125 C1    -25.333091    1.415397   -0.907218 C    1637 MOH     0.1166 ****
10126 HC2   -24.388546    1.125949   -1.367545 H    1637 MOH     0.0372 ****
10127 HC3   -26.095770    0.701779   -1.216931 H    1637 MOH     0.0372 ****
10128 O1    -25.165659    1.423154    0.521845 O    1637 MOH    -0.6497 ****
10129 HO1   -25.994157    1.610948    0.968736 H    1637 MOH     0.4215 ****
10130 HC1    -8.465803    2.235568    6.126373 H    1638 MOH     0.0372 ****
10131 C1     -7.607283    2.597276    5.560688 C    1638 MOH     0.1166 ****
10132 HC2    -7.955425    3.116567    4.668319 H    1638 MOH     0.0372 ****
10133 HC3    -6.977971    1.756692    5.267238 H    1638 MOH     0.0372 ****
10134 O1     -6.857882    3.486849    6.356183 O    1638 MOH    -0.6497 ****
10135 HO1    -6.690450    3.068394    7.204004 H    1638 MOH     0.4215 ****
10136 HC1   -22.718849    8.497688    0.840750 H    1639 MOH     0.0372 ****
10137 C1    -23.089507    8.100871    1.785444 C    1639 MOH     0.1166 ****
10138 HC2   -22.235029    7.977988    2.450832 H    1639 MOH     0.0372 ****
10139 HC3   -23.561203    7.125157    1.669479 H    1639 MOH     0.0372 ****
10140 O1    -23.944563    9.036168    2.347594 O    1639 MOH    -0.6497 ****
10141 HO1   -23.759811    9.037801    3.289460 H    1639 MOH     0.4215 ****
10142 HC1   -22.834896   -4.556867   12.992380 H    1640 MOH     0.0372 ****
10143 C1    -21.940581   -4.999408   13.432200 C    1640 MOH     0.1166 ****
10144 HC2   -21.874763   -4.726290   14.485082 H    1640 MOH     0.0372 ****
10145 HC3   -21.050306   -4.629536   12.923083 H    1640 MOH     0.0372 ****
10146 O1    -21.991965   -6.411948   13.316235 O    1640 MOH    -0.6497 ****
10147 HO1   -21.086679   -6.720175   13.404623 H    1640 MOH     0.4215 ****
10148 HC1   -24.181277   -8.915326   -8.671958 H    1641 MOH     0.0372 ****
10149 C1    -23.667435   -8.606282   -7.761911 C    1641 MOH     0.1166 ****
10150 HC2   -22.584326   -8.632410   -7.877877 H    1641 MOH     0.0372 ****
10151 HC3   -23.970544   -9.245599   -6.931768 H    1641 MOH     0.0372 ****
10152 O1    -24.106799   -7.348878   -7.479069 O    1641 MOH    -0.6497 ****
10153 HO1   -24.438775   -6.986761   -8.304262 H    1641 MOH     0.4215 ****
10154 HC1   -23.430722    3.822837    6.578921 H    1642 MOH     0.0372 ****
10155 C1    -23.497117    3.562375    7.635339 C    1642 MOH     0.1166 ****
10156 HC2   -23.389152    2.484191    7.759082 H    1642 MOH     0.0372 ****
10157 HC3   -24.480922    3.877134    7.983942 H    1642 MOH     0.0372 ****
10158 O1    -22.513312    4.281300    8.358709 O    1642 MOH    -0.6497 ****
10159 HO1   -21.690588    4.172298    7.875755 H    1642 MOH     0.4215 ****
10160 HC1   -15.884176    6.383779   11.427552 H    1643 MOH     0.0372 ****
10161 C1    -15.446545    5.480325   11.002581 C    1643 MOH     0.1166 ****
10162 HC2   -15.202903    5.675468    9.958892 H    1643 MOH     0.0372 ****
10163 HC3   -16.152067    4.654031   11.095919 H    1643 MOH     0.0372 ****
10164 O1    -14.310319    5.182712   11.749993 O    1643 MOH    -0.6497 ****
10165 HO1   -13.682740    5.908578   11.701910 H    1643 MOH     0.4215 ****
10166 HC1   -22.721158    9.911452   -2.234458 H    1644 MOH     0.0372 ****
10167 C1    -22.154777   10.216413   -1.354110 C    1644 MOH     0.1166 ****
10168 HC2   -21.769107    9.322758   -0.862671 H    1644 MOH     0.0372 ****
10169 HC3   -22.808915   10.740196   -0.657610 H    1644 MOH     0.0372 ****
10170 O1    -21.060121   11.030869   -1.759282 O    1644 MOH    -0.6497 ****
10171 HO1   -21.411150   11.906153   -1.936059 H    1644 MOH     0.4215 ****
10172 HC1   -30.804639    0.506636   -2.837620 H    1645 MOH     0.0372 ****
10173 C1    -30.245764    1.139013   -2.148191 C    1645 MOH     0.1166 ****
10174 HC2   -30.200731    2.139629   -2.578819 H    1645 MOH     0.0372 ****
10175 HC3   -29.232514    0.744645   -2.067581 H    1645 MOH     0.0372 ****
10176 O1    -30.910872    1.151260   -0.859842 O    1645 MOH    -0.6497 ****
10177 HO1   -30.443795    0.533172   -0.294157 H    1645 MOH     0.4215 ****
10178 HC1   -22.329714   -5.706495   -4.938434 H    1646 MOH     0.0372 ****
10179 C1    -23.211906   -5.123108   -4.677512 C    1646 MOH     0.1166 ****
10180 HC2   -22.907642   -4.124533   -4.366385 H    1646 MOH     0.0372 ****
10181 HC3   -23.747109   -5.613006   -3.864339 H    1646 MOH     0.0372 ****
10182 O1    -24.032898   -5.067994   -5.844945 O    1646 MOH    -0.6497 ****
10183 HO1   -24.123542   -5.956751   -6.197791 H    1646 MOH     0.4215 ****
10184 HC1   -14.792984  -14.698980    0.512652 H    1647 MOH     0.0372 ****
10185 C1    -13.955249  -14.470769   -0.147078 C    1647 MOH     0.1166 ****
10186 HC2   -13.597869  -13.469336    0.088388 H    1647 MOH     0.0372 ****
10187 HC3   -14.305700  -14.515676   -1.178040 H    1647 MOH     0.0372 ****
10188 O1    -12.874449  -15.412598    0.057276 O    1647 MOH    -0.6497 ****
10189 HO1   -12.041333  -15.024354   -0.220617 H    1647 MOH     0.4215 ****
10190 HC1   -20.599396   -3.843658    0.127986 H    1648 MOH     0.0372 ****
10191 C1    -20.911165   -2.800175    0.092631 C    1648 MOH     0.1166 ****
10192 HC2   -20.105184   -2.142895    0.420728 H    1648 MOH     0.0372 ****
10193 HC3   -21.754096   -2.676884    0.771453 H    1648 MOH     0.0372 ****
10194 O1    -21.364385   -2.453980   -1.201375 O    1648 MOH    -0.6497 ****
10195 HO1   -21.575695   -1.518275   -1.171676 H    1648 MOH     0.4215 ****
10196 HC1   -13.903287    4.169848    7.625439 H    1649 MOH     0.0372 ****
10197 C1    -12.977795    4.469502    8.119000 C    1649 MOH     0.1166 ****
10198 HC2   -12.533813    3.615447    8.630945 H    1649 MOH     0.0372 ****
10199 HC3   -13.223746    5.221496    8.868533 H    1649 MOH     0.0372 ****
10200 O1    -12.095604    4.968790    7.092988 O    1649 MOH    -0.6497 ****
10201 HO1   -12.286129    5.906945    7.018035 H    1649 MOH     0.4215 ****
10202 HC1   -24.874097   -4.672810    0.944694 H    1650 MOH     0.0372 ****
10203 C1    -24.102757   -4.965932    1.657458 C    1650 MOH     0.1166 ****
10204 HC2   -23.204977   -5.222312    1.094601 H    1650 MOH     0.0372 ****
10205 HC3   -24.433002   -5.854280    2.196273 H    1650 MOH     0.0372 ****
10206 O1    -23.842372   -3.888565    2.566090 O    1650 MOH    -0.6497 ****
10207 HO1   -24.508634   -3.913468    3.256934 H    1650 MOH     0.4215 ****
10208 HC1   -25.003424   -4.062070    6.827823 H    1651 MOH     0.0372 ****
10209 C1    -24.520181   -4.212714    5.862622 C    1651 MOH     0.1166 ****
10210 HC2   -24.064652   -5.202308    5.842823 H    1651 MOH     0.0372 ****
10211 HC3   -23.759811   -3.443574    5.724029 H    1651 MOH     0.0372 ****
10212 O1    -25.551329   -4.163316    4.876208 O    1651 MOH    -0.6497 ****
10213 HO1   -26.064016   -3.362333    5.006316 H    1651 MOH     0.4215 ****
10214 HC1   -29.303528   -2.634426    0.494267 H    1652 MOH     0.0372 ****
10215 C1    -28.715786   -1.718725    0.555786 C    1652 MOH     0.1166 ****
10216 HC2   -28.249864   -1.508069   -0.407294 H    1652 MOH     0.0372 ****
10217 HC3   -27.927125   -1.867328    1.292591 H    1652 MOH     0.0372 ****
10218 O1    -29.497518   -0.594001    0.931259 O    1652 MOH    -0.6497 ****
10219 HO1   -29.897622   -0.758117    1.788273 H    1652 MOH     0.4215 ****
10220 HC1   -15.568365   -0.026944   -1.955858 H    1653 MOH     0.0372 ****
10221 C1    -14.786633    0.646257   -2.307290 C    1653 MOH     0.1166 ****
10222 HC2   -14.227181    0.211473   -3.135312 H    1653 MOH     0.0372 ****
10223 HC3   -14.101318    0.851198   -1.485631 H    1653 MOH     0.0372 ****
10224 O1    -15.360519    1.845691   -2.752767 O    1653 MOH    -0.6497 ****
10225 HO1   -15.165375    2.489090   -2.066873 H    1653 MOH     0.4215 ****
10226 HC1   -10.668509   22.713955   -1.684329 H    1654 MOH     0.0372 ****
10227 C1    -11.704853   22.852759   -1.377444 C    1654 MOH     0.1166 ****
10228 HC2   -12.268347   23.216917   -2.235872 H    1654 MOH     0.0372 ****
10229 HC3   -11.774712   23.602712   -0.589020 H    1654 MOH     0.0372 ****
10230 O1    -12.230242   21.610052   -0.960251 O    1654 MOH    -0.6497 ****
10231 HO1   -12.992921   21.762328   -0.398101 H    1654 MOH     0.4215 ****
10232 HC1   -16.170080   12.172984    2.406991 H    1655 MOH     0.0372 ****
10233 C1    -16.970865   11.779025    3.032781 C    1655 MOH     0.1166 ****
10234 HC2   -17.536668   11.048668    2.453660 H    1655 MOH     0.0372 ****
10235 HC3   -17.643478   12.555921    3.394112 H    1655 MOH     0.0372 ****
10236 O1    -16.473766   11.038054    4.077177 O    1655 MOH    -0.6497 ****
10237 HO1   -15.929325   11.634097    4.596194 H    1655 MOH     0.4215 ****
10238 HC1    -4.060735   13.412018    6.913383 H    1656 MOH     0.0372 ****
10239 C1     -3.999536   14.191772    7.671401 C    1656 MOH     0.1166 ****
10240 HC2    -3.639270   13.745965    8.599125 H    1656 MOH     0.0372 ****
10241 HC3    -4.992579   14.617167    7.817065 H    1656 MOH     0.0372 ****
10242 O1     -3.128315   15.214434    7.243602 O    1656 MOH    -0.6497 ****
10243 HO1    -2.241505   14.854359    7.177134 H    1656 MOH     0.4215 ****
10244 HC1     2.197742   18.161170    1.132785 H    1657 MOH     0.0372 ****
10245 C1      2.631332   18.354272    2.113542 C    1657 MOH     0.1166 ****
10246 HC2     2.917120   19.405103    2.164454 H    1657 MOH     0.0372 ****
10247 HC3     3.519296   17.734959    2.240114 H    1657 MOH     0.0372 ****
10248 O1      1.676972   18.039512    3.121169 O    1657 MOH    -0.6497 ****
10249 HO1     1.877889   17.147898    3.413911 H    1657 MOH     0.4215 ****
10250 HC1    -4.439477    7.307481   -6.499726 H    1658 MOH     0.0372 ****
10251 C1     -4.626539    6.321561   -6.074754 C    1658 MOH     0.1166 ****
10252 HC2    -5.018559    6.416275   -5.062178 H    1658 MOH     0.0372 ****
10253 HC3    -3.669292    5.805127   -6.006165 H    1658 MOH     0.0372 ****
10254 O1     -5.467738    5.517721   -6.923990 O    1658 MOH    -0.6497 ****
10255 HO1    -6.183652    5.171526   -6.386589 H    1658 MOH     0.4215 ****
10256 HC1    -9.618886   21.262632    2.984697 H    1659 MOH     0.0372 ****
10257 C1     -9.014978   21.814176    3.705239 C    1659 MOH     0.1166 ****
10258 HC2    -8.203224   21.178942    4.058793 H    1659 MOH     0.0372 ****
10259 HC3    -9.663342   22.099950    4.533968 H    1659 MOH     0.0372 ****
10260 O1     -8.510374   22.938083    3.049751 O    1659 MOH    -0.6497 ****
10261 HO1    -7.697465   23.199771    3.488865 H    1659 MOH     0.4215 ****
10262 HC1    -2.218411   22.746207  -10.595995 H    1660 MOH     0.0372 ****
10263 C1     -1.680897   23.088727  -11.480586 C    1660 MOH     0.1166 ****
10264 HC2    -2.008832   22.514730  -12.347499 H    1660 MOH     0.0372 ****
10265 HC3    -0.621460   22.904199  -11.302395 H    1660 MOH     0.0372 ****
10266 O1     -1.941282   24.469423  -11.749286 O    1660 MOH    -0.6497 ****
10267 HO1    -1.682052   24.674363  -12.650140 H    1660 MOH     0.4215 ****
10268 HC1   -11.557051   15.941116    7.369467 H    1661 MOH     0.0372 ****
10269 C1    -12.577229   15.648402    7.617661 C    1661 MOH     0.1166 ****
10270 HC2   -12.738310   15.705965    8.693171 H    1661 MOH     0.0372 ****
10271 HC3   -12.785653   14.626148    7.300877 H    1661 MOH     0.0372 ****
10272 O1    -13.463462   16.540833    7.016620 O    1661 MOH    -0.6497 ****
10273 HO1   -13.011974   16.917238    6.257188 H    1661 MOH     0.4215 ****
10274 HC1   -16.958163   18.727819    3.573717 H    1662 MOH     0.0372 ****
10275 C1    -15.917778   18.755171    3.247741 C    1662 MOH     0.1166 ****
10276 HC2   -15.333499   18.115446    3.910300 H    1662 MOH     0.0372 ****
10277 HC3   -15.576564   19.788856    3.301481 H    1662 MOH     0.0372 ****
10278 O1    -15.850805   18.273030    1.924744 O    1662 MOH    -0.6497 ****
10279 HO1   -16.445476   17.520220    1.880904 H    1662 MOH     0.4215 ****
10280 HC1   -14.077763   14.045619   -0.586192 H    1663 MOH     0.0372 ****
10281 C1    -13.163240   14.351805   -1.093894 C    1663 MOH     0.1166 ****
10282 HC2   -12.567992   15.006227   -0.456791 H    1663 MOH     0.0372 ****
10283 HC3   -13.438636   14.898042   -1.996163 H    1663 MOH     0.0372 ****
10284 O1    -12.461182   13.212384   -1.491996 O    1663 MOH    -0.6497 ****
10285 HO1   -11.526452   13.411201   -1.402193 H    1663 MOH     0.4215 ****
10286 HC1   -17.131945   13.707998   -5.441894 H    1664 MOH     0.0372 ****
10287 C1    -17.089222   13.949681   -4.379820 C    1664 MOH     0.1166 ****
10288 HC2   -16.052300   13.887627   -4.048894 H    1664 MOH     0.0372 ****
10289 HC3   -17.686779   13.247902   -3.797871 H    1664 MOH     0.0372 ****
10290 O1    -17.522812   15.243420   -4.110412 O    1664 MOH    -0.6497 ****
10291 HO1   -18.292419   15.434888   -4.651349 H    1664 MOH     0.4215 ****
10292 HC1   -19.735218   17.645553    2.273348 H    1665 MOH     0.0372 ****
10293 C1    -20.169963   16.760062    2.736503 C    1665 MOH     0.1166 ****
10294 HC2   -20.582191   16.085228    1.986263 H    1665 MOH     0.0372 ****
10295 HC3   -20.992109   17.046244    3.393405 H    1665 MOH     0.0372 ****
10296 O1    -19.264677   16.057467    3.531998 O    1665 MOH    -0.6497 ****
10297 HO1   -19.791221   15.339766    3.892623 H    1665 MOH     0.4215 ****
10298 HC1     5.946477   18.579625    0.299106 H    1666 MOH     0.0372 ****
10299 C1      6.029038   19.519412    0.844993 C    1666 MOH     0.1166 ****
10300 HC2     5.202272   20.175059    0.572049 H    1666 MOH     0.0372 ****
10301 HC3     6.986285   19.981549    0.600334 H    1666 MOH     0.0372 ****
10302 O1      5.988046   19.161378    2.186374 O    1666 MOH    -0.6497 ****
10303 HO1     6.212058   19.904390    2.750645 H    1666 MOH     0.4215 ****
10304 HC1    -6.146125   23.203853    0.042426 H    1667 MOH     0.0372 ****
10305 C1     -6.811809   24.062807    0.127279 C    1667 MOH     0.1166 ****
10306 HC2    -7.853927   23.742741    0.120208 H    1667 MOH     0.0372 ****
10307 HC3    -6.676709   24.687427   -0.755190 H    1667 MOH     0.0372 ****
10308 O1     -6.586065   24.859708    1.330775 O    1667 MOH    -0.6497 ****
10309 HO1    -6.658812   24.292651    2.100814 H    1667 MOH     0.4215 ****
10310 HC1    -6.071646   12.549797    8.992277 H    1668 MOH     0.0372 ****
10311 C1     -5.772002   11.502641    8.977428 C    1668 MOH     0.1166 ****
10312 HC2    -5.138071   11.314030    8.110515 H    1668 MOH     0.0372 ****
10313 HC3    -6.639759   10.848627    8.898232 H    1668 MOH     0.0372 ****
10314 O1     -5.067057   11.191555   10.171024 O    1668 MOH    -0.6497 ****
10315 HO1    -4.632890   10.343215   10.052230 H    1668 MOH     0.4215 ****
10316 HC1   -13.822574   15.817417   -5.055107 H    1669 MOH     0.0372 ****
10317 C1    -14.362974   16.686986   -5.428459 C    1669 MOH     0.1166 ****
10318 HC2   -14.806379   16.357529   -6.368204 H    1669 MOH     0.0372 ****
10319 HC3   -13.640131   17.490010   -5.574830 H    1669 MOH     0.0372 ****
10320 O1    -15.354284   17.025423   -4.434974 O    1669 MOH    -0.6497 ****
10321 HO1   -15.989947   16.311397   -4.352242 H    1669 MOH     0.4215 ****
10322 HC1   -15.379110    9.045394   -9.364215 H    1670 MOH     0.0372 ****
10323 C1    -14.966305   10.052951   -9.400985 C    1670 MOH     0.1166 ****
10324 HC2   -15.051752   10.523661   -8.421642 H    1670 MOH     0.0372 ****
10325 HC3   -15.543077   10.640828  -10.115163 H    1670 MOH     0.0372 ****
10326 O1    -13.626852    9.997429   -9.832320 O    1670 MOH    -0.6497 ****
10327 HO1   -13.593366    9.336883  -10.528113 H    1670 MOH     0.4215 ****
10328 HC1     0.734159    7.202153   -3.415326 H    1671 MOH     0.0372 ****
10329 C1      0.054040    6.633463   -2.781051 C    1671 MOH     0.1166 ****
10330 HC2     0.408533    6.670614   -1.750796 H    1671 MOH     0.0372 ****
10331 HC3    -0.000808    5.596921   -3.112684 H    1671 MOH     0.0372 ****
10332 O1     -1.178603    7.256450   -2.863075 O    1671 MOH    -0.6497 ****
10333 HO1    -1.076412    8.149289   -2.527200 H    1671 MOH     0.4215 ****
10334 HC1    -9.205504   27.457800    2.776101 H    1672 MOH     0.0372 ****
10335 C1     -9.659878   27.755821    1.831406 C    1672 MOH     0.1166 ****
10336 HC2   -10.740678   27.621100    1.879490 H    1672 MOH     0.0372 ****
10337 HC3    -9.237258   27.131202    1.043689 H    1672 MOH     0.0372 ****
10338 O1     -9.378131   29.113247    1.571898 O    1672 MOH    -0.6497 ****
10339 HO1    -9.647754   29.307573    0.671044 H    1672 MOH     0.4215 ****
10340 HC1    -8.164541   30.371468    5.899392 H    1673 MOH     0.0372 ****
10341 C1     -8.506333   29.701941    5.110260 C    1673 MOH     0.1166 ****
10342 HC2    -9.004586   28.825840    5.526039 H    1673 MOH     0.0372 ****
10343 HC3    -7.633956   29.383916    4.539625 H    1673 MOH     0.0372 ****
10344 O1     -9.287487   30.431889    4.188193 O    1673 MOH    -0.6497 ****
10345 HO1    -9.260352   29.944849    3.361585 H    1673 MOH     0.4215 ****
10346 HC1    -5.397879   13.665540    1.568363 H    1674 MOH     0.0372 ****
10347 C1     -5.538175   13.511222    0.499217 C    1674 MOH     0.1166 ****
10348 HC2    -5.734474   14.465707    0.009899 H    1674 MOH     0.0372 ****
10349 HC3    -6.372446   12.832305    0.323148 H    1674 MOH     0.0372 ****
10350 O1     -4.362690   12.956821   -0.052326 O    1674 MOH    -0.6497 ****
10351 HO1    -3.716057   12.855984    0.649831 H    1674 MOH     0.4215 ****
10352 HC1    -2.634680   21.701908    2.858833 H    1675 MOH     0.0372 ****
10353 C1     -2.152015   20.735992    2.711754 C    1675 MOH     0.1166 ****
10354 HC2    -2.925087   19.981958    2.563969 H    1675 MOH     0.0372 ****
10355 HC3    -1.587367   20.493493    3.611194 H    1675 MOH     0.0372 ****
10356 O1     -1.243843   20.763753    1.588869 O    1675 MOH    -0.6497 ****
10357 HO1    -0.532548   21.367960    1.817971 H    1675 MOH     0.4215 ****
10358 HC1    -7.941684   13.459375   -5.800397 H    1676 MOH     0.0372 ****
10359 C1     -8.102765   12.446511   -5.431994 C    1676 MOH     0.1166 ****
10360 HC2    -8.853897   12.491418   -4.644278 H    1676 MOH     0.0372 ****
10361 HC3    -7.177849   12.046019   -5.016923 H    1676 MOH     0.0372 ****
10362 O1     -8.554252   11.599804   -6.488412 O    1676 MOH    -0.6497 ****
10363 HO1    -8.149530   10.741666   -6.338505 H    1676 MOH     0.4215 ****
10364 HC1    -0.070090   24.973609   10.994803 H    1677 MOH     0.0372 ****
10365 C1     -0.781386   24.147723   10.984197 C    1677 MOH     0.1166 ****
10366 HC2    -0.419387   23.416550   10.260826 H    1677 MOH     0.0372 ****
10367 HC3    -1.770387   24.520046   10.714082 H    1677 MOH     0.0372 ****
10368 O1     -0.844895   23.574134   12.269010 O    1677 MOH    -0.6497 ****
10369 HO1    -1.120868   24.257950   12.883485 H    1677 MOH     0.4215 ****
10370 HC1    -4.140410   26.503316   -6.013236 H    1678 MOH     0.0372 ****
10371 C1     -4.721224   26.884620   -5.173193 C    1678 MOH     0.1166 ****
10372 HC2    -4.423889   27.891768   -4.881158 H    1678 MOH     0.0372 ****
10373 HC3    -4.513378   26.229381   -4.326787 H    1678 MOH     0.0372 ****
10374 O1     -6.100514   26.840937   -5.458157 O    1678 MOH    -0.6497 ****
10375 HO1    -6.505814   26.166103   -4.908736 H    1678 MOH     0.4215 ****
10376 HC1   -15.562707   16.146465    5.012680 H    1679 MOH     0.0372 ****
10377 C1    -15.954151   15.377325    4.347999 C    1679 MOH     0.1166 ****
10378 HC2   -15.454743   15.411210    3.379970 H    1679 MOH     0.0372 ****
10379 HC3   -17.025713   15.539808    4.223549 H    1679 MOH     0.0372 ****
10380 O1    -15.813278   14.110531    4.932777 O    1679 MOH    -0.6497 ****
10381 HO1   -16.259569   14.110122    5.782012 H    1679 MOH     0.4215 ****
10382 HC1     0.657371   13.714530    0.632153 H    1680 MOH     0.0372 ****
10383 C1      0.640628   12.707381    0.214253 C    1680 MOH     0.1166 ****
10384 HC2     1.142345   12.048877    0.922067 H    1680 MOH     0.0372 ****
10385 HC3     1.191997   12.678804   -0.726199 H    1680 MOH     0.0372 ****
10386 O1     -0.702289   12.271780    0.065054 O    1680 MOH    -0.6497 ****
10387 HO1    -1.194191   12.532651    0.847821 H    1680 MOH     0.4215 ****
10388 HC1    -5.207930   17.505523   -0.236174 H    1681 MOH     0.0372 ****
10389 C1     -6.271410   17.706382   -0.367696 C    1681 MOH     0.1166 ****
10390 HC2    -6.853379   16.785373   -0.340826 H    1681 MOH     0.0372 ****
10391 HC3    -6.436532   18.177092   -1.337139 H    1681 MOH     0.0372 ****
10392 O1     -6.721743   18.596771    0.611647 O    1681 MOH    -0.6497 ****
10393 HO1    -6.611469   19.491243    0.281428 H    1681 MOH     0.4215 ****
10394 HC1    -5.727546    9.177258    2.170818 H    1682 MOH     0.0372 ****
10395 C1     -5.913452    9.763095    1.270671 C    1682 MOH     0.1166 ****
10396 HC2    -5.895555    9.139291    0.376888 H    1682 MOH     0.0372 ****
10397 HC3    -5.165784   10.548564    1.161776 H    1682 MOH     0.0372 ****
10398 O1     -7.155910   10.351380    1.400071 O    1682 MOH    -0.6497 ****
10399 HO1    -7.454400   10.462016    0.494267 H    1682 MOH     0.4215 ****
10400 HC1    -4.542823   12.752289    3.589981 H    1683 MOH     0.0372 ****
10401 C1     -3.788803   11.998662    3.362293 C    1683 MOH     0.1166 ****
10402 HC2    -4.274932   11.109089    2.962777 H    1683 MOH     0.0372 ****
10403 HC3    -3.299788   11.709214    4.292138 H    1683 MOH     0.0372 ****
10404 O1     -2.854651   12.540816    2.417598 O    1683 MOH    -0.6497 ****
10405 HO1    -2.638144   13.438554    2.677106 H    1683 MOH     0.4215 ****
10406 HC1    -9.200308   10.528152    3.078036 H    1684 MOH     0.0372 ****
10407 C1     -9.111973   11.514072    3.534120 C    1684 MOH     0.1166 ****
10408 HC2    -9.712995   11.545915    4.442045 H    1684 MOH     0.0372 ****
10409 HC3    -9.464157   12.249327    2.810749 H    1684 MOH     0.0372 ****
10410 O1     -7.771943   11.717787    3.841711 O    1684 MOH    -0.6497 ****
10411 HO1    -7.286969   11.251160    3.157939 H    1684 MOH     0.4215 ****
10412 HC1     0.744551   22.320404   -4.699432 H    1685 MOH     0.0372 ****
10413 C1      1.164862   23.203853   -4.218599 C    1685 MOH     0.1166 ****
10414 HC2     1.418319   23.945640   -4.975911 H    1685 MOH     0.0372 ****
10415 HC3     2.051672   22.920937   -3.652207 H    1685 MOH     0.0372 ****
10416 O1      0.159695   23.700283   -3.395527 O    1685 MOH    -0.6497 ****
10417 HO1     0.515920   23.896650   -2.526493 H    1685 MOH     0.4215 ****
10418 HC1    -4.904244   24.628231    7.876462 H    1686 MOH     0.0372 ****
10419 C1     -4.946968   25.502291    7.226631 C    1686 MOH     0.1166 ****
10420 HC2    -4.146183   26.202437    7.464926 H    1686 MOH     0.0372 ****
10421 HC3    -5.886317   26.018317    7.421793 H    1686 MOH     0.0372 ****
10422 O1     -4.946391   25.147931    5.835045 O    1686 MOH    -0.6497 ****
10423 HO1    -4.837272   25.940341    5.304008 H    1686 MOH     0.4215 ****
10424 HC1   -10.590567   20.358771   -3.509371 H    1687 MOH     0.0372 ****
10425 C1    -11.173113   19.485936   -3.213801 C    1687 MOH     0.1166 ****
10426 HC2   -10.837095   18.571051   -3.700997 H    1687 MOH     0.0372 ****
10427 HC3   -12.193291   19.665973   -3.551091 H    1687 MOH     0.0372 ****
10428 O1    -11.180042   19.338966   -1.810901 O    1687 MOH    -0.6497 ****
10429 HO1   -11.366526   20.200779   -1.429770 H    1687 MOH     0.4215 ****
10430 HC1   -11.421374   17.344265    0.761554 H    1688 MOH     0.0372 ****
10431 C1    -10.389649   17.060533    0.555786 C    1688 MOH     0.1166 ****
10432 HC2   -10.118872   16.234646    1.212688 H    1688 MOH     0.0372 ****
10433 HC3    -9.741285   17.911322    0.766504 H    1688 MOH     0.0372 ****
10434 O1    -10.251662   16.741283   -0.806102 O    1688 MOH    -0.6497 ****
10435 HO1   -10.548420   17.534101   -1.258650 H    1688 MOH     0.4215 ****
10436 HC1     0.204151   12.782091    8.404671 H    1689 MOH     0.0372 ****
10437 C1      0.279207   13.823940    8.094958 C    1689 MOH     0.1166 ****
10438 HC2     1.317860   14.048477    7.851714 H    1689 MOH     0.0372 ****
10439 HC3    -0.082792   14.425290    8.930051 H    1689 MOH     0.0372 ****
10440 O1     -0.608758   13.981524    7.018742 O    1689 MOH    -0.6497 ****
10441 HO1    -0.241563   13.461008    6.301028 H    1689 MOH     0.4215 ****
10442 HC1   -10.070952    8.869439    8.953386 H    1690 MOH     0.0372 ****
10443 C1     -9.078487    8.890260    8.502959 C    1690 MOH     0.1166 ****
10444 HC2    -8.555407    9.801470    8.792873 H    1690 MOH     0.0372 ****
10445 HC3    -9.138531    8.834738    7.416843 H    1690 MOH     0.0372 ****
10446 O1     -8.343520    7.825548    8.951265 O    1690 MOH    -0.6497 ****
10447 HO1    -8.790389    7.029464    8.655694 H    1690 MOH     0.4215 ****
10448 HC1   -12.130937   21.098925    1.958686 H    1691 MOH     0.0372 ****
10449 C1    -12.370538   20.466140    2.812871 C    1691 MOH     0.1166 ****
10450 HC2   -13.416119   20.590656    3.093592 H    1691 MOH     0.0372 ****
10451 HC3   -11.738339   20.773551    3.646549 H    1691 MOH     0.0372 ****
10452 O1    -12.068584   19.116063    2.496794 O    1691 MOH    -0.6497 ****
10453 HO1   -12.531041   18.842945    1.701299 H    1691 MOH     0.4215 ****
10454 HC1   -14.724395   13.160537   -7.141072 H    1692 MOH     0.0372 ****
10455 C1    -13.936312   13.194830   -7.893433 C    1692 MOH     0.1166 ****
10456 HC2   -14.356623   13.586340   -8.820450 H    1692 MOH     0.0372 ****
10457 HC3   -13.538517   12.197071   -8.080109 H    1692 MOH     0.0372 ****
10458 O1    -12.929990   14.095017   -7.543415 O    1692 MOH    -0.6497 ****
10459 HO1   -12.102647   13.630022   -7.686958 H    1692 MOH     0.4215 ****
10460 HC1   -11.520678   12.539999   -9.859190 H    1693 MOH     0.0372 ****
10461 C1    -11.090552   11.970085   -9.034704 C    1693 MOH     0.1166 ****
10462 HC2   -10.315171   11.326277   -9.449775 H    1693 MOH     0.0372 ****
10463 HC3   -11.835911   11.321378   -8.574377 H    1693 MOH     0.0372 ****
10464 O1    -10.521285   12.864557   -8.094959 O    1693 MOH    -0.6497 ****
10465 HO1   -10.106747   12.325261   -7.418257 H    1693 MOH     0.4215 ****
10466 HC1    -2.895643    9.472422    4.479521 H    1694 MOH     0.0372 ****
10467 C1     -2.644495    8.951905    5.403710 C    1694 MOH     0.1166 ****
10468 HC2    -3.311335    8.098258    5.524625 H    1694 MOH     0.0372 ****
10469 HC3    -2.767471    9.621841    6.254359 H    1694 MOH     0.0372 ****
10470 O1     -1.304465    8.521203    5.306836 O    1694 MOH    -0.6497 ****
10471 HO1    -1.114517    7.965577    6.065562 H    1694 MOH     0.4215 ****
10472 HC1   -11.369412   15.700658    3.700290 H    1695 MOH     0.0372 ****
10473 C1    -12.379198   16.099925    3.792213 C    1695 MOH     0.1166 ****
10474 HC2   -12.991767   15.358546    4.305573 H    1695 MOH     0.0372 ****
10475 HC3   -12.780457   16.291801    2.796607 H    1695 MOH     0.0372 ****
10476 O1    -12.311071   17.288744    4.554475 O    1695 MOH    -0.6497 ****
10477 HO1   -11.976785   17.981949    3.980304 H    1695 MOH     0.4215 ****
10478 HC1    -4.752401   11.692884   -7.249259 H    1696 MOH     0.0372 ****
10479 C1     -4.446983   10.712680   -7.616247 C    1696 MOH     0.1166 ****
10480 HC2    -3.497819   10.792288   -8.145870 H    1696 MOH     0.0372 ****
10481 HC3    -5.213704   10.320353   -8.283049 H    1696 MOH     0.0372 ****
10482 O1     -4.293407    9.792080   -6.542152 O    1696 MOH    -0.6497 ****
10483 HO1    -3.444125    9.358112   -6.650339 H    1696 MOH     0.4215 ****
10484 HC1   -15.625639   22.936859    2.124148 H    1697 MOH     0.0372 ****
10485 C1    -14.763077   23.399812    1.644730 C    1697 MOH     0.1166 ****
10486 HC2   -13.976149   23.514530    2.390728 H    1697 MOH     0.0372 ****
10487 HC3   -15.080043   24.391856    1.322289 H    1697 MOH     0.0372 ****
10488 O1    -14.380294   22.612301    0.485782 O    1697 MOH    -0.6497 ****
10489 HO1   -15.074269   22.658433   -0.175363 H    1697 MOH     0.4215 ****
10490 HC1    -8.939345   18.374276    8.384872 H    1698 MOH     0.0372 ****
10491 C1     -8.331395   19.245069    8.136678 C    1698 MOH     0.1166 ****
10492 HC2    -7.281773   18.975626    8.022126 H    1698 MOH     0.0372 ****
10493 HC3    -8.387976   19.967261    8.951972 H    1698 MOH     0.0372 ****
10494 O1     -8.726303   19.807227    6.926818 O    1698 MOH    -0.6497 ****
10495 HO1    -8.444556   19.208735    6.231025 H    1698 MOH     0.4215 ****
10496 HC1    -7.466525   15.368344  -12.324164 H    1699 MOH     0.0372 ****
10497 C1     -6.542764   15.556546  -12.872172 C    1699 MOH     0.1166 ****
10498 HC2    -5.952135   14.641662  -12.834695 H    1699 MOH     0.0372 ****
10499 HC3    -6.020262   16.379983  -12.384975 H    1699 MOH     0.0372 ****
10500 O1     -6.815851   15.908864  -14.226282 O    1699 MOH    -0.6497 ****
10501 HO1    -6.034118   16.330993  -14.589734 H    1699 MOH     0.4215 ****
10502 HC1    -3.358677   24.624149   -2.303047 H    1700 MOH     0.0372 ****
10503 C1     -4.373659   24.240804   -2.406992 C    1700 MOH     0.1166 ****
10504 HC2    -5.094770   25.058117   -2.385778 H    1700 MOH     0.0372 ****
10505 HC3    -4.608641   23.545965   -1.600890 H    1700 MOH     0.0372 ****
10506 O1     -4.501254   23.528819   -3.589274 O    1700 MOH    -0.6497 ****
10507 HO1    -3.780720   22.895626   -3.621094 H    1700 MOH     0.4215 ****
10508 HC1    -9.879849   10.630214   -1.413507 H    1701 MOH     0.0372 ****
10509 C1     -9.023061   10.372201   -2.037175 C    1701 MOH     0.1166 ****
10510 HC2    -8.837154   11.165427   -2.760545 H    1701 MOH     0.0372 ****
10511 HC3    -9.269012    9.468339   -2.594375 H    1701 MOH     0.0372 ****
10512 O1     -7.859700   10.181549   -1.236023 O    1701 MOH    -0.6497 ****
10513 HO1    -7.163416    9.833722   -1.797466 H    1701 MOH     0.4215 ****
10514 HC1    -3.825176   10.290143   -2.230215 H    1702 MOH     0.0372 ****
10515 C1     -4.323430    9.514471   -2.810042 C    1702 MOH     0.1166 ****
10516 HC2    -3.596546    8.769010   -3.132483 H    1702 MOH     0.0372 ****
10517 HC3    -4.785887    9.988448   -3.676248 H    1702 MOH     0.0372 ****
10518 O1     -5.298574    8.883728   -2.013133 O    1702 MOH    -0.6497 ****
10519 HO1    -4.826879    8.514671   -1.263600 H    1702 MOH     0.4215 ****
10520 HC1    -0.484628   16.342016    4.956818 H    1703 MOH     0.0372 ****
10521 C1     -1.107011   17.236488    4.947626 C    1703 MOH     0.1166 ****
10522 HC2    -0.663029   18.023591    5.557152 H    1703 MOH     0.0372 ****
10523 HC3    -2.078692   16.958471    5.357041 H    1703 MOH     0.0372 ****
10524 O1     -1.286567   17.689235    3.626043 O    1703 MOH    -0.6497 ****
10525 HO1    -0.429202   17.964803    3.292996 H    1703 MOH     0.4215 ****
10526 HC1    -8.744201   22.309789   -0.861256 H    1704 MOH     0.0372 ****
10527 C1     -8.562913   21.271614   -0.581949 C    1704 MOH     0.1166 ****
10528 HC2    -9.222247   20.634338   -1.170969 H    1704 MOH     0.0372 ****
10529 HC3    -8.787502   21.116888    0.473761 H    1704 MOH     0.0372 ****
10530 O1     -7.232698   20.876021   -0.823073 O    1704 MOH    -0.6497 ****
10531 HO1    -7.053142   20.984207   -1.759989 H    1704 MOH     0.4215 ****
10532 HC1    -4.855747   16.521645    2.797314 H    1705 MOH     0.0372 ****
10533 C1     -4.401949   17.401012    3.254105 C    1705 MOH     0.1166 ****
10534 HC2    -3.564792   17.717813    2.631851 H    1705 MOH     0.0372 ****
10535 HC3    -4.098263   17.151980    4.270925 H    1705 MOH     0.0372 ****
10536 O1     -5.352268   18.398771    3.218750 O    1705 MOH    -0.6497 ****
10537 HO1    -5.680203   18.454292    2.317896 H    1705 MOH     0.4215 ****
10538 HC1     2.507201   19.840704    8.174154 H    1706 MOH     0.0372 ****
10539 C1      2.254322   20.705374    8.787923 C    1706 MOH     0.1166 ****
10540 HC2     3.062035   20.888677    9.495737 H    1706 MOH     0.0372 ****
10541 HC3     1.336335   20.472672    9.326738 H    1706 MOH     0.0372 ****
10542 O1      2.062064   21.813768    7.931617 O    1706 MOH    -0.6497 ****
10543 HO1     1.376749   21.542691    7.316434 H    1706 MOH     0.4215 ****
10544 HC1    -1.233451   12.581233    4.640035 H    1707 MOH     0.0372 ****
10545 C1     -0.410727   11.890476    4.454773 C    1707 MOH     0.1166 ****
10546 HC2    -0.135331   12.011726    3.407547 H    1707 MOH     0.0372 ****
10547 HC3    -0.719032   10.850668    4.561546 H    1707 MOH     0.0372 ****
10548 O1      0.679310   12.201153    5.339363 O    1707 MOH    -0.6497 ****
10549 HO1     1.290147   11.460591    5.352091 H    1707 MOH     0.4215 ****
10550 HC1    -5.486213   13.922736   -4.555182 H    1708 MOH     0.0372 ****
10551 C1     -4.558989   13.745965   -4.011417 C    1708 MOH     0.1166 ****
10552 HC2    -4.624807   12.821282   -3.437953 H    1708 MOH     0.0372 ****
10553 HC3    -4.335554   14.582466   -3.348858 H    1708 MOH     0.0372 ****
10554 O1     -3.555554   13.643903   -4.941969 O    1708 MOH    -0.6497 ****
10555 HO1    -2.745531   13.984790   -4.555182 H    1708 MOH     0.4215 ****
10556 HC1    -7.583149   14.066848   -9.828077 H    1709 MOH     0.0372 ****
10557 C1     -7.303134   13.158496   -9.294212 C    1709 MOH     0.1166 ****
10558 HC2    -6.494844   12.662882   -9.831613 H    1709 MOH     0.0372 ****
10559 HC3    -8.133941   12.452634   -9.270877 H    1709 MOH     0.0372 ****
10560 O1     -6.865503   13.419774   -7.974750 O    1709 MOH    -0.6497 ****
10561 HO1    -7.213068   12.715138   -7.423207 H    1709 MOH     0.4215 ****
10562 HC1     3.600703   13.538983    3.575132 H    1710 MOH     0.0372 ****
10563 C1      2.769318   14.222391    3.405426 C    1710 MOH     0.1166 ****
10564 HC2     1.847290   13.762295    3.762515 H    1710 MOH     0.0372 ****
10565 HC3     2.698882   14.410593    2.334159 H    1710 MOH     0.0372 ****
10566 O1      3.097253   15.443053    4.057379 O    1710 MOH    -0.6497 ****
10567 HO1     3.710399   15.245869    4.769435 H    1710 MOH     0.4215 ****
10568 HC1    -3.892727   15.768427   12.058292 H    1711 MOH     0.0372 ****
10569 C1     -4.784155   16.395088   12.026472 C    1711 MOH     0.1166 ****
10570 HC2    -5.672697   15.764345   11.986167 H    1711 MOH     0.0372 ****
10571 HC3    -4.774918   17.013176   11.128446 H    1711 MOH     0.0372 ****
10572 O1     -4.773763   17.242612   13.147943 O    1711 MOH    -0.6497 ****
10573 HO1    -4.018012   17.822732   13.031271 H    1711 MOH     0.4215 ****
10574 HC1    -2.235731   17.030322   10.644785 H    1712 MOH     0.0372 ****
10575 C1     -2.011142   18.096259   10.694990 C    1712 MOH     0.1166 ****
10576 HC2    -2.370254   18.644128    9.823834 H    1712 MOH     0.0372 ****
10577 HC3    -0.925146   18.142799   10.622865 H    1712 MOH     0.0372 ****
10578 O1     -2.371986   18.694342   11.961418 O    1712 MOH    -0.6497 ****
10579 HO1    -2.444155   19.643112   11.835553 H    1712 MOH     0.4215 ****
10580 HC1    -7.993645   14.936417    7.094402 H    1713 MOH     0.0372 ****
10581 C1     -7.648390   14.093384    6.496897 C    1713 MOH     0.1166 ****
10582 HC2    -6.908227   13.561437    7.095816 H    1713 MOH     0.0372 ****
10583 HC3    -7.206717   14.479179    5.578365 H    1713 MOH     0.0372 ****
10584 O1     -8.700900   13.175642    6.163143 O    1713 MOH    -0.6497 ****
10585 HO1    -8.422039   12.662474    5.401589 H    1713 MOH     0.4215 ****
10586 HC1    -0.836234   23.473705    0.871862 H    1714 MOH     0.0372 ****
10587 C1     -1.328714   23.910123    0.002828 C    1714 MOH     0.1166 ****
10588 HC2    -2.270950   24.397571    0.253144 H    1714 MOH     0.0372 ****
10589 HC3    -1.581016   23.075663   -0.651953 H    1714 MOH     0.0372 ****
10590 O1     -0.490979   24.835213   -0.697207 O    1714 MOH    -0.6497 ****
10591 HO1    -1.031956   25.534951   -1.069146 H    1714 MOH     0.4215 ****
10592 HC1    -2.928551    3.256842   -2.650236 H    1715 MOH     0.0372 ****
10593 C1     -2.961460    4.341965   -2.749231 C    1715 MOH     0.1166 ****
10594 HC2    -2.516323    4.811043   -1.871712 H    1715 MOH     0.0372 ****
10595 HC3    -3.998959    4.667748   -2.824185 H    1715 MOH     0.0372 ****
10596 O1     -2.275568    4.719187   -3.914543 O    1715 MOH    -0.6497 ****
10597 HO1    -2.173955    5.672447   -3.874238 H    1715 MOH     0.4215 ****
10598 HC1    -1.960912   16.637588    0.517602 H    1716 MOH     0.0372 ****
10599 C1     -1.297537   15.815784    0.787010 C    1716 MOH     0.1166 ****
10600 HC2    -0.281401   16.201987    0.864791 H    1716 MOH     0.0372 ****
10601 HC3    -1.311393   15.033172    0.028284 H    1716 MOH     0.0372 ****
10602 O1     -1.675701   15.388756    2.073944 O    1716 MOH    -0.6497 ****
10603 HO1    -1.622008   16.157896    2.645286 H    1716 MOH     0.4215 ****
10604 HC1     1.819000   22.836838    4.620943 H    1717 MOH     0.0372 ****
10605 C1      1.479518   22.090968    3.901815 C    1717 MOH     0.1166 ****
10606 HC2     0.973182   21.253651    4.383355 H    1717 MOH     0.0372 ****
10607 HC3     2.366328   21.694151    3.406840 H    1717 MOH     0.0372 ****
10608 O1      0.638318   22.711506    2.947221 O    1717 MOH    -0.6497 ****
10609 HO1     1.167749   23.396546    2.531442 H    1717 MOH     0.4215 ****
10610 HC1    -7.474607   15.600637   -4.360021 H    1718 MOH     0.0372 ****
10611 C1     -8.105074   15.287102   -3.528463 C    1718 MOH     0.1166 ****
10612 HC2    -9.081373   14.974384   -3.898987 H    1718 MOH     0.0372 ****
10613 HC3    -8.275392   16.114213   -2.838327 H    1718 MOH     0.0372 ****
10614 O1     -7.502898   14.233005   -2.832670 O    1718 MOH    -0.6497 ****
10615 HO1    -8.153571   13.878646   -2.223144 H    1718 MOH     0.4215 ****
10616 HC1    -4.812445   20.333051   -1.216224 H    1719 MOH     0.0372 ****
10617 C1     -4.155998   20.608619   -0.391030 C    1719 MOH     0.1166 ****
10618 HC2    -4.702749   20.572693    0.552250 H    1719 MOH     0.0372 ****
10619 HC3    -3.809588   21.631281   -0.541644 H    1719 MOH     0.0372 ****
10620 O1     -3.037093   19.736600   -0.325976 O    1719 MOH    -0.6497 ****
10621 HO1    -2.432030   20.063199    0.344361 H    1719 MOH     0.4215 ****
10622 HC1    -1.035997   25.047911    6.551344 H    1720 MOH     0.0372 ****
10623 C1     -1.347767   24.629048    7.508767 C    1720 MOH     0.1166 ****
10624 HC2    -1.874887   25.375326    8.101322 H    1720 MOH     0.0372 ****
10625 HC3    -0.455183   24.295509    8.036976 H    1720 MOH     0.0372 ****
10626 O1     -2.162408   23.514938    7.281785 O    1720 MOH    -0.6497 ****
10627 HO1    -2.848300   23.756213    6.655996 H    1720 MOH     0.4215 ****
10628 HC1   -15.474373   10.265240   -1.163191 H    1721 MOH     0.0372 ****
10629 C1    -14.830627   11.049485   -1.559878 C    1721 MOH     0.1166 ****
10630 HC2   -14.796564   11.850876   -0.822365 H    1721 MOH     0.0372 ****
10631 HC3   -15.229576   11.489577   -2.474874 H    1721 MOH     0.0372 ****
10632 O1    -13.518887   10.584898   -1.790395 O    1721 MOH    -0.6497 ****
10633 HO1   -13.076637   11.372001   -2.115664 H    1721 MOH     0.4215 ****
10634 HC1    -6.198663   21.972168    5.343606 H    1722 MOH     0.0372 ****
10635 C1     -5.616694   22.214667    4.454065 C    1722 MOH     0.1166 ****
10636 HC2    -5.653067   21.392864    3.739180 H    1722 MOH     0.0372 ****
10637 HC3    -4.589588   22.357963    4.791355 H    1722 MOH     0.0372 ****
10638 O1     -6.082616   23.459008    3.922321 O    1722 MOH    -0.6497 ****
10639 HO1    -5.666924   24.136292    4.460429 H    1722 MOH     0.4215 ****
10640 HC1    -8.704364   17.405911    3.015103 H    1723 MOH     0.0372 ****
10641 C1     -8.541551   17.181783    4.069399 C    1723 MOH     0.1166 ****
10642 HC2    -7.974016   16.255059    4.161323 H    1723 MOH     0.0372 ****
10643 HC3    -9.525356   17.064207    4.523362 H    1723 MOH     0.0372 ****
10644 O1     -7.848731   18.258333    4.661248 O    1723 MOH    -0.6497 ****
10645 HO1    -7.010418   18.348964    4.203043 H    1723 MOH     0.4215 ****
10646 HC1   -10.768968   11.339750    7.774639 H    1724 MOH     0.0372 ****
10647 C1    -11.162144   11.774534    8.693171 C    1724 MOH     0.1166 ****
10648 HC2   -11.346319   12.839245    8.551749 H    1724 MOH     0.0372 ****
10649 HC3   -10.462973   11.630422    9.516950 H    1724 MOH     0.0372 ****
10650 O1    -12.326659   11.113580    9.021975 O    1724 MOH    -0.6497 ****
10651 HO1   -12.751012   11.563061    9.756659 H    1724 MOH     0.4215 ****
10652 HC1    -8.982069   17.300991   -6.320828 H    1725 MOH     0.0372 ****
10653 C1     -9.115437   16.278329   -6.673674 C    1725 MOH     0.1166 ****
10654 HC2   -10.114253   16.200762   -7.102181 H    1725 MOH     0.0372 ****
10655 HC3    -9.042113   15.561445   -5.856259 H    1725 MOH     0.0372 ****
10656 O1     -8.195141   16.001128   -7.685544 O    1725 MOH    -0.6497 ****
10657 HO1    -8.079093   15.053176   -7.777468 H    1725 MOH     0.4215 ****
10658 HC1    -6.795066    8.026406   -7.363103 H    1726 MOH     0.0372 ****
10659 C1     -7.531765    8.372193   -6.638319 C    1726 MOH     0.1166 ****
10660 HC2    -7.802542    7.564269   -5.957375 H    1726 MOH     0.0372 ****
10661 HC3    -8.440514    8.671847   -7.158749 H    1726 MOH     0.0372 ****
10662 O1     -7.091824    9.453642   -5.844238 O    1726 MOH    -0.6497 ****
10663 HO1    -6.144392    9.385057   -5.708473 H    1726 MOH     0.4215 ****
10664 HC1    -5.846480   24.581691   -7.010964 H    1727 MOH     0.0372 ****
10665 C1     -6.694030   23.917063   -6.841258 C    1727 MOH     0.1166 ****
10666 HC2    -7.559478   24.560870   -6.684988 H    1727 MOH     0.0372 ****
10667 HC3    -6.461358   23.315305   -5.963032 H    1727 MOH     0.0372 ****
10668 O1     -6.827398   23.215284   -8.056775 O    1727 MOH    -0.6497 ****
10669 HO1    -5.981580   22.809485   -8.261836 H    1727 MOH     0.4215 ****
10670 HC1    -4.429085   19.963995    7.570285 H    1728 MOH     0.0372 ****
10671 C1     -4.365576   19.040945    6.993993 C    1728 MOH     0.1166 ****
10672 HC2    -3.333851   18.836821    6.708322 H    1728 MOH     0.0372 ****
10673 HC3    -4.982764   19.152805    6.103038 H    1728 MOH     0.0372 ****
10674 O1     -4.883460   17.987665    7.759083 O    1728 MOH    -0.6497 ****
10675 HO1    -4.633467   17.163003    7.334818 H    1728 MOH     0.4215 ****
10676 HC1   -16.480117   19.271605   -0.912168 H    1729 MOH     0.0372 ****
10677 C1    -16.646394   20.342033   -0.793374 C    1729 MOH     0.1166 ****
10678 HC2   -16.293056   20.662916    0.186676 H    1729 MOH     0.0372 ****
10679 HC3   -17.713337   20.555138   -0.865499 H    1729 MOH     0.0372 ****
10680 O1    -15.959347   21.056467   -1.803123 O    1729 MOH    -0.6497 ****
10681 HO1   -16.049991   20.526561   -2.597911 H    1729 MOH     0.4215 ****
10682 HC1    -9.816918   25.587615   -3.761101 H    1730 MOH     0.0372 ****
10683 C1     -8.945696   24.932376   -3.780193 C    1730 MOH     0.1166 ****
10684 HC2    -8.946273   24.360829   -4.707917 H    1730 MOH     0.0372 ****
10685 HC3    -8.973409   24.223249   -2.952171 H    1730 MOH     0.0372 ****
10686 O1     -7.767324   25.717029   -3.706654 O    1730 MOH    -0.6497 ****
10687 HO1    -7.796769   26.227748   -2.894188 H    1730 MOH     0.4215 ****
10688 HC1     4.996736   16.424482    1.705541 H    1731 MOH     0.0372 ****
10689 C1      5.637017   15.549198    1.814436 C    1731 MOH     0.1166 ****
10690 HC2     5.486906   15.148298    2.817113 H    1731 MOH     0.0372 ****
10691 HC3     6.675670   15.861916    1.708370 H    1731 MOH     0.0372 ****
10692 O1      5.257698   14.607369    0.811051 O    1731 MOH    -0.6497 ****
10693 HO1     5.186684   13.734126    1.203496 H    1731 MOH     0.4215 ****
10694 HC1   -14.002130   18.822532   -1.236023 H    1732 MOH     0.0372 ****
10695 C1    -13.734816   17.817833   -0.907218 C    1732 MOH     0.1166 ****
10696 HC2   -12.790271   17.528385   -1.367545 H    1732 MOH     0.0372 ****
10697 HC3   -14.497496   17.104215   -1.216931 H    1732 MOH     0.0372 ****
10698 O1    -13.567385   17.825590    0.521845 O    1732 MOH    -0.6497 ****
10699 HO1   -14.395883   18.013384    0.968736 H    1732 MOH     0.4215 ****
10700 HC1     3.132472   18.638004    6.126373 H    1733 MOH     0.0372 ****
10701 C1      3.990991   18.999712    5.560688 C    1733 MOH     0.1166 ****
10702 HC2     3.642849   19.519004    4.668319 H    1733 MOH     0.0372 ****
10703 HC3     4.620303   18.159129    5.267238 H    1733 MOH     0.0372 ****
10704 O1      4.740392   19.889285    6.356183 O    1733 MOH    -0.6497 ****
10705 HO1     4.907824   19.470831    7.204004 H    1733 MOH     0.4215 ****
10706 HC1   -11.120574   24.900125    0.840750 H    1734 MOH     0.0372 ****
10707 C1    -11.491233   24.503307    1.785444 C    1734 MOH     0.1166 ****
10708 HC2   -10.636755   24.380425    2.450832 H    1734 MOH     0.0372 ****
10709 HC3   -11.962929   23.527594    1.669479 H    1734 MOH     0.0372 ****
10710 O1    -12.346289   25.438604    2.347594 O    1734 MOH    -0.6497 ****
10711 HO1   -12.161537   25.440237    3.289460 H    1734 MOH     0.4215 ****
10712 HC1   -11.236622   11.845569   12.992380 H    1735 MOH     0.0372 ****
10713 C1    -10.342306   11.403028   13.432200 C    1735 MOH     0.1166 ****
10714 HC2   -10.276489   11.676146   14.485082 H    1735 MOH     0.0372 ****
10715 HC3    -9.452032   11.772901   12.923083 H    1735 MOH     0.0372 ****
10716 O1    -10.393691    9.990489   13.316235 O    1735 MOH    -0.6497 ****
10717 HO1    -9.488405    9.682261   13.404623 H    1735 MOH     0.4215 ****
10718 HC1   -12.583003    7.487110   -8.671958 H    1736 MOH     0.0372 ****
10719 C1    -12.069161    7.796154   -7.761911 C    1736 MOH     0.1166 ****
10720 HC2   -10.986052    7.770026   -7.877877 H    1736 MOH     0.0372 ****
10721 HC3   -12.372270    7.156837   -6.931768 H    1736 MOH     0.0372 ****
10722 O1    -12.508524    9.053559   -7.479069 O    1736 MOH    -0.6497 ****
10723 HO1   -12.840501    9.415675   -8.304262 H    1736 MOH     0.4215 ****
10724 HC1   -11.832447   20.225274    6.578921 H    1737 MOH     0.0372 ****
10725 C1    -11.898843   19.964811    7.635339 C    1737 MOH     0.1166 ****
10726 HC2   -11.790878   18.886627    7.759082 H    1737 MOH     0.0372 ****
10727 HC3   -12.882648   20.279571    7.983942 H    1737 MOH     0.0372 ****
10728 O1    -10.915038   20.683736    8.358709 O    1737 MOH    -0.6497 ****
10729 HO1   -10.092314   20.574734    7.875755 H    1737 MOH     0.4215 ****
10730 HC1    -4.285902   22.786215   11.427552 H    1738 MOH     0.0372 ****
10731 C1     -3.848271   21.882762   11.002581 C    1738 MOH     0.1166 ****
10732 HC2    -3.604629   22.077904    9.958892 H    1738 MOH     0.0372 ****
10733 HC3    -4.553793   21.056467   11.095919 H    1738 MOH     0.0372 ****
10734 O1     -2.712045   21.585149   11.749993 O    1738 MOH    -0.6497 ****
10735 HO1    -2.084466   22.311014   11.701910 H    1738 MOH     0.4215 ****
10736 HC1    -7.505785   15.588389   10.794692 H    1739 MOH     0.0372 ****
10737 C1     -7.916281   14.631864   11.117840 C    1739 MOH     0.1166 ****
10738 HC2    -7.137435   13.869256   11.139053 H    1739 MOH     0.0372 ****
10739 HC3    -8.701477   14.353030   10.415683 H    1739 MOH     0.0372 ****
10740 O1     -8.512106   14.776384   12.373661 O    1739 MOH    -0.6497 ****
10741 HO1    -7.891455   15.225457   12.952075 H    1739 MOH     0.4215 ****
10742 HC1   -11.122884   26.313888   -2.234458 H    1740 MOH     0.0372 ****
10743 C1    -10.556503   26.618850   -1.354110 C    1740 MOH     0.1166 ****
10744 HC2   -10.170833   25.725194   -0.862671 H    1740 MOH     0.0372 ****
10745 HC3   -11.210641   27.142633   -0.657610 H    1740 MOH     0.0372 ****
10746 O1     -9.461847   27.433305   -1.759282 O    1740 MOH    -0.6497 ****
10747 HO1    -9.812876   28.308590   -1.936059 H    1740 MOH     0.4215 ****
10748 HC1   -19.206365   16.909073   -2.837620 H    1741 MOH     0.0372 ****
10749 C1    -18.647490   17.541449   -2.148191 C    1741 MOH     0.1166 ****
10750 HC2   -18.602457   18.542066   -2.578819 H    1741 MOH     0.0372 ****
10751 HC3   -17.634240   17.147081   -2.067581 H    1741 MOH     0.0372 ****
10752 O1    -19.312597   17.553697   -0.859842 O    1741 MOH    -0.6497 ****
10753 HO1   -18.845521   16.935609   -0.294157 H    1741 MOH     0.4215 ****
10754 HC1   -10.731440   10.695942   -4.938434 H    1742 MOH     0.0372 ****
10755 C1    -11.613632   11.279329   -4.677512 C    1742 MOH     0.1166 ****
10756 HC2   -11.309368   12.277904   -4.366385 H    1742 MOH     0.0372 ****
10757 HC3   -12.148835   10.789431   -3.864339 H    1742 MOH     0.0372 ****
10758 O1    -12.434624   11.334442   -5.844945 O    1742 MOH    -0.6497 ****
10759 HO1   -12.525268   10.445686   -6.197791 H    1742 MOH     0.4215 ****
10760 HC1    -9.001122   12.558779    0.127986 H    1743 MOH     0.0372 ****
10761 C1     -9.312891   13.602261    0.092631 C    1743 MOH     0.1166 ****
10762 HC2    -8.506910   14.259541    0.420728 H    1743 MOH     0.0372 ****
10763 HC3   -10.155822   13.725552    0.771453 H    1743 MOH     0.0372 ****
10764 O1     -9.766111   13.948456   -1.201375 O    1743 MOH    -0.6497 ****
10765 HO1    -9.977421   14.884161   -1.171676 H    1743 MOH     0.4215 ****
10766 HC1    -2.305013   20.572285    7.625439 H    1744 MOH     0.0372 ****
10767 C1     -1.379521   20.871939    8.119000 C    1744 MOH     0.1166 ****
10768 HC2    -0.935538   20.017883    8.630945 H    1744 MOH     0.0372 ****
10769 HC3    -1.625472   21.623932    8.868533 H    1744 MOH     0.0372 ****
10770 O1     -0.497330   21.371227    7.092988 O    1744 MOH    -0.6497 ****
10771 HO1    -0.687855   22.309381    7.018035 H    1744 MOH     0.4215 ****
10772 HC1   -13.275823   11.729627    0.944694 H    1745 MOH     0.0372 ****
10773 C1    -12.504483   11.436504    1.657458 C    1745 MOH     0.1166 ****
10774 HC2   -11.606703   11.180124    1.094601 H    1745 MOH     0.0372 ****
10775 HC3   -12.834727   10.548156    2.196273 H    1745 MOH     0.0372 ****
10776 O1    -12.244098   12.513872    2.566090 O    1745 MOH    -0.6497 ****
10777 HO1   -12.910360   12.488968    3.256934 H    1745 MOH     0.4215 ****
10778 HC1   -13.405150   12.340366    6.827823 H    1746 MOH     0.0372 ****
10779 C1    -12.921907   12.189722    5.862622 C    1746 MOH     0.1166 ****
10780 HC2   -12.466378   11.200129    5.842823 H    1746 MOH     0.0372 ****
10781 HC3   -12.161537   12.958862    5.724029 H    1746 MOH     0.0372 ****
10782 O1    -13.953055   12.239120    4.876208 O    1746 MOH    -0.6497 ****
10783 HO1   -14.465742   13.040104    5.006316 H    1746 MOH     0.4215 ****
10784 HC1   -17.705254   13.768010    0.494267 H    1747 MOH     0.0372 ****
10785 C1    -17.117512   14.683711    0.555786 C    1747 MOH     0.1166 ****
10786 HC2   -16.651590   14.894367   -0.407294 H    1747 MOH     0.0372 ****
10787 HC3   -16.328851   14.535109    1.292591 H    1747 MOH     0.0372 ****
10788 O1    -17.899244   15.808435    0.931259 O    1747 MOH    -0.6497 ****
10789 HO1   -18.299348   15.644319    1.788273 H    1747 MOH     0.4215 ****
10790 HC1    -3.888108   24.441254    2.973384 H    1748 MOH     0.0372 ****
10791 C1     -2.942408   24.784182    3.393405 C    1748 MOH     0.1166 ****
10792 HC2    -3.056146   25.758671    3.869288 H    1748 MOH     0.0372 ****
10793 HC3    -2.212637   24.897675    2.591546 H    1748 MOH     0.0372 ****
10794 O1     -2.500735   23.861949    4.365677 O    1748 MOH    -0.6497 ****
10795 HO1    -1.669351   23.473705    4.083541 H    1748 MOH     0.4215 ****
10796 HC1    -4.571806   28.575421    2.406991 H    1749 MOH     0.0372 ****
10797 C1     -5.372591   28.181461    3.032781 C    1749 MOH     0.1166 ****
10798 HC2    -5.938394   27.451105    2.453660 H    1749 MOH     0.0372 ****
10799 HC3    -6.045204   28.958358    3.394112 H    1749 MOH     0.0372 ****
10800 O1     -4.875492   27.440491    4.077177 O    1749 MOH    -0.6497 ****
10801 HO1    -4.331051   28.036533    4.596194 H    1749 MOH     0.4215 ****
10802 HC1     7.537539   29.814454    6.913383 H    1750 MOH     0.0372 ****
10803 C1      7.598738   30.594209    7.671401 C    1750 MOH     0.1166 ****
10804 HC2     7.959004   30.148401    8.599125 H    1750 MOH     0.0372 ****
10805 HC3     6.605695   31.019603    7.817065 H    1750 MOH     0.0372 ****
10806 O1      8.469959   31.616871    7.243602 O    1750 MOH    -0.6497 ****
10807 HO1     9.356769   31.256796    7.177134 H    1750 MOH     0.4215 ****
10808 HC1     8.683579   31.257612   -9.476645 H    1751 MOH     0.0372 ****
10809 C1      7.891455   30.725256   -8.950558 C    1751 MOH     0.1166 ****
10810 HC2     7.918590   30.982861   -7.892019 H    1751 MOH     0.0372 ****
10811 HC3     8.057154   29.657687   -9.092686 H    1751 MOH     0.0372 ****
10812 O1      6.662853   31.140853   -9.506344 O    1751 MOH    -0.6497 ****
10813 HO1     5.968301   30.782003   -8.948436 H    1751 MOH     0.4215 ****
10814 HC1     0.041223   32.343553    7.369467 H    1752 MOH     0.0372 ****
10815 C1     -0.978955   32.050838    7.617661 C    1752 MOH     0.1166 ****
10816 HC2    -1.140036   32.108402    8.693171 H    1752 MOH     0.0372 ****
10817 HC3    -1.187379   31.028585    7.300877 H    1752 MOH     0.0372 ****
10818 O1     -1.865188   32.943269    7.016620 O    1752 MOH    -0.6497 ****
10819 HO1    -1.413700   33.319674    6.257188 H    1752 MOH     0.4215 ****
10820 HC1    11.945608   31.734854   -9.031875 H    1753 MOH     0.0372 ****
10821 C1     12.144217   32.695462   -8.557406 C    1753 MOH     0.1166 ****
10822 HC2    13.208850   32.912651   -8.640845 H    1753 MOH     0.0372 ****
10823 HC3    11.915009   32.660353   -7.492504 H    1753 MOH     0.0372 ****
10824 O1     11.350937   33.691180   -9.208652 O    1753 MOH    -0.6497 ****
10825 HO1    11.398280   34.467260   -8.645088 H    1753 MOH     0.4215 ****
10826 HC1    -2.479488   30.448056   -0.586192 H    1754 MOH     0.0372 ****
10827 C1     -1.564966   30.754242   -1.093894 C    1754 MOH     0.1166 ****
10828 HC2    -0.969718   31.408664   -0.456791 H    1754 MOH     0.0372 ****
10829 HC3    -1.840362   31.300478   -1.996163 H    1754 MOH     0.0372 ****
10830 O1     -0.862908   29.614821   -1.491996 O    1754 MOH    -0.6497 ****
10831 HO1     0.071822   29.813638   -1.402193 H    1754 MOH     0.4215 ****
10832 HC1    10.786866   26.267593   -4.019902 H    1755 MOH     0.0372 ****
10833 C1     10.834209   26.991009   -3.205315 C    1755 MOH     0.1166 ****
10834 HC2    10.040930   27.718508   -3.376435 H    1755 MOH     0.0372 ****
10835 HC3    11.794920   27.504585   -3.251984 H    1755 MOH     0.0372 ****
10836 O1     10.648879   26.349243   -1.911310 O    1755 MOH    -0.6497 ****
10837 HO1    10.457199   27.024894   -1.255822 H    1755 MOH     0.4215 ****
10838 HC1     5.526628   28.952234    8.992277 H    1756 MOH     0.0372 ****
10839 C1      5.826272   27.905077    8.977428 C    1756 MOH     0.1166 ****
10840 HC2     6.460203   27.716466    8.110515 H    1756 MOH     0.0372 ****
10841 HC3     4.958515   27.251063    8.898232 H    1756 MOH     0.0372 ****
10842 O1      6.531217   27.593992   10.171024 O    1756 MOH    -0.6497 ****
10843 HO1     6.965384   26.745652   10.052230 H    1756 MOH     0.4215 ****
10844 HC1    -3.780836   25.447831   -9.364215 H    1757 MOH     0.0372 ****
10845 C1     -3.368030   26.455387   -9.400985 C    1757 MOH     0.1166 ****
10846 HC2    -3.453478   26.926098   -8.421642 H    1757 MOH     0.0372 ****
10847 HC3    -3.944803   27.043265  -10.115163 H    1757 MOH     0.0372 ****
10848 O1     -2.028578   26.399866   -9.832320 O    1757 MOH    -0.6497 ****
10849 HO1    -1.995091   25.739320  -10.528113 H    1757 MOH     0.4215 ****
10850 HC1     6.200395   30.067977    1.568363 H    1758 MOH     0.0372 ****
10851 C1      6.060099   29.913659    0.499217 C    1758 MOH     0.1166 ****
10852 HC2     5.863800   30.868143    0.009899 H    1758 MOH     0.0372 ****
10853 HC3     5.225828   29.234742    0.323148 H    1758 MOH     0.0372 ****
10854 O1      7.235585   29.359257   -0.052326 O    1758 MOH    -0.6497 ****
10855 HO1     7.882217   29.258420    0.649831 H    1758 MOH     0.4215 ****
10856 HC1     3.656590   29.861811   -5.800397 H    1759 MOH     0.0372 ****
10857 C1      3.495510   28.848947   -5.431994 C    1759 MOH     0.1166 ****
10858 HC2     2.744377   28.893854   -4.644278 H    1759 MOH     0.0372 ****
10859 HC3     4.420425   28.448455   -5.016923 H    1759 MOH     0.0372 ****
10860 O1      3.044022   28.002240   -6.488412 O    1759 MOH    -0.6497 ****
10861 HO1     3.448744   27.144102   -6.338505 H    1759 MOH     0.4215 ****
10862 HC1    12.662100   23.978953    1.813729 H    1760 MOH     0.0372 ****
10863 C1     12.495823   24.065910    2.887824 C    1760 MOH     0.1166 ****
10864 HC2    12.567992   25.122048    3.147332 H    1760 MOH     0.0372 ****
10865 HC3    13.282751   23.511917    3.400476 H    1760 MOH     0.0372 ****
10866 O1     11.170227   23.547027    3.121876 O    1760 MOH    -0.6497 ****
10867 HO1    10.859035   23.895671    3.960505 H    1760 MOH     0.4215 ****
10868 HC1    12.255645   30.116966    0.632153 H    1761 MOH     0.0372 ****
10869 C1     12.238902   29.109818    0.214253 C    1761 MOH     0.1166 ****
10870 HC2    12.740619   28.451313    0.922067 H    1761 MOH     0.0372 ****
10871 HC3    12.790271   29.081240   -0.726199 H    1761 MOH     0.0372 ****
10872 O1     10.895985   28.674217    0.065054 O    1761 MOH    -0.6497 ****
10873 HO1    10.404083   28.935087    0.847821 H    1761 MOH     0.4215 ****
10874 HC1     5.870728   25.579695    2.170818 H    1762 MOH     0.0372 ****
10875 C1      5.684822   26.165531    1.270671 C    1762 MOH     0.1166 ****
10876 HC2     5.702720   25.541728    0.376888 H    1762 MOH     0.0372 ****
10877 HC3     6.432490   26.951001    1.161776 H    1762 MOH     0.0372 ****
10878 O1      4.442364   26.753817    1.400071 O    1762 MOH    -0.6497 ****
10879 HO1     4.143874   26.864452    0.494267 H    1762 MOH     0.4215 ****
10880 HC1     7.055451   29.154725    3.589981 H    1763 MOH     0.0372 ****
10881 C1      7.809471   28.401099    3.362293 C    1763 MOH     0.1166 ****
10882 HC2     7.323342   27.511526    2.962777 H    1763 MOH     0.0372 ****
10883 HC3     8.298486   28.111651    4.292138 H    1763 MOH     0.0372 ****
10884 O1      8.743623   28.943252    2.417598 O    1763 MOH    -0.6497 ****
10885 HO1     8.960130   29.840990    2.677106 H    1763 MOH     0.4215 ****
10886 HC1     2.992060   22.525181    0.855599 H    1764 MOH     0.0372 ****
10887 C1      2.585028   23.525798    0.710642 C    1764 MOH     0.1166 ****
10888 HC2     1.539447   23.480074    0.405172 H    1764 MOH     0.0372 ****
10889 HC3     3.141594   23.983444   -0.106066 H    1764 MOH     0.0372 ****
10890 O1      2.739758   24.349643    1.867469 O    1764 MOH    -0.6497 ****
10891 HO1     3.022660   25.229826    1.607254 H    1764 MOH     0.4215 ****
10892 HC1     2.397967   26.930588    3.078036 H    1765 MOH     0.0372 ****
10893 C1      2.486301   27.916508    3.534120 C    1765 MOH     0.1166 ****
10894 HC2     1.885280   27.948351    4.442045 H    1765 MOH     0.0372 ****
10895 HC3     2.134118   28.651763    2.810749 H    1765 MOH     0.0372 ****
10896 O1      3.826331   28.120224    3.841711 O    1765 MOH    -0.6497 ****
10897 HO1     4.311305   27.653596    3.157939 H    1765 MOH     0.4215 ****
10898 HC1     4.361535   22.093254    3.891916 H    1766 MOH     0.0372 ****
10899 C1      5.437716   22.101419    3.722210 C    1766 MOH     0.1166 ****
10900 HC2     5.858027   22.961599    4.241933 H    1766 MOH     0.0372 ****
10901 HC3     5.641520   22.161840    2.653065 H    1766 MOH     0.0372 ****
10902 O1      6.031232   20.956691    4.222842 O    1766 MOH    -0.6497 ****
10903 HO1     5.569352   20.695412    5.021872 H    1766 MOH     0.4215 ****
10904 HC1     0.176900   33.746702    0.761554 H    1767 MOH     0.0372 ****
10905 C1      1.208625   33.462969    0.555786 C    1767 MOH     0.1166 ****
10906 HC2     1.479402   32.637083    1.212688 H    1767 MOH     0.0372 ****
10907 HC3     1.856989   34.313759    0.766504 H    1767 MOH     0.0372 ****
10908 O1      1.346612   33.143719   -0.806102 O    1767 MOH    -0.6497 ****
10909 HO1     1.049854   33.936537   -1.258650 H    1767 MOH     0.4215 ****
10910 HC1     5.670965   33.019203   -4.924999 H    1768 MOH     0.0372 ****
10911 C1      5.685399   33.726698   -5.754435 C    1768 MOH     0.1166 ****
10912 HC2     4.694666   34.157808   -5.895857 H    1768 MOH     0.0372 ****
10913 HC3     6.024304   33.233534   -6.665189 H    1768 MOH     0.0372 ****
10914 O1      6.562394   34.778345   -5.447551 O    1768 MOH    -0.6497 ****
10915 HO1     6.758693   34.785285   -4.507806 H    1768 MOH     0.4215 ****
10916 HC1    11.802425   29.184527    8.404671 H    1769 MOH     0.0372 ****
10917 C1     11.877481   30.226377    8.094958 C    1769 MOH     0.1166 ****
10918 HC2    12.916134   30.450913    7.851714 H    1769 MOH     0.0372 ****
10919 HC3    11.515482   30.827727    8.930051 H    1769 MOH     0.0372 ****
10920 O1     10.989516   30.383961    7.018742 O    1769 MOH    -0.6497 ****
10921 HO1    11.356711   29.863444    6.301028 H    1769 MOH     0.4215 ****
10922 HC1     1.527322   25.271876    8.953386 H    1770 MOH     0.0372 ****
10923 C1      2.519787   25.292696    8.502959 C    1770 MOH     0.1166 ****
10924 HC2     3.042867   26.203906    8.792873 H    1770 MOH     0.0372 ****
10925 HC3     2.459743   25.237175    7.416843 H    1770 MOH     0.0372 ****
10926 O1      3.254754   24.227985    8.951265 O    1770 MOH    -0.6497 ****
10927 HO1     2.807885   23.431901    8.655694 H    1770 MOH     0.4215 ****
10928 HC1    -3.126121   29.562973   -7.141072 H    1771 MOH     0.0372 ****
10929 C1     -2.338038   29.597266   -7.893433 C    1771 MOH     0.1166 ****
10930 HC2    -2.758349   29.988776   -8.820450 H    1771 MOH     0.0372 ****
10931 HC3    -1.940243   28.599507   -8.080109 H    1771 MOH     0.0372 ****
10932 O1     -1.331716   30.497454   -7.543415 O    1771 MOH    -0.6497 ****
10933 HO1    -0.504373   30.032459   -7.686958 H    1771 MOH     0.4215 ****
10934 HC1     0.077596   28.942436   -9.859190 H    1772 MOH     0.0372 ****
10935 C1      0.507722   28.372521   -9.034704 C    1772 MOH     0.1166 ****
10936 HC2     1.283103   27.728714   -9.449775 H    1772 MOH     0.0372 ****
10937 HC3    -0.237637   27.723815   -8.574377 H    1772 MOH     0.0372 ****
10938 O1      1.076989   29.266993   -8.094959 O    1772 MOH    -0.6497 ****
10939 HO1     1.491527   28.727697   -7.418257 H    1772 MOH     0.4215 ****
10940 HC1    11.140782   31.980620   -2.913987 H    1773 MOH     0.0372 ****
10941 C1     11.101522   30.911009   -3.119048 C    1773 MOH     0.1166 ****
10942 HC2    10.323254   30.482757   -2.487602 H    1773 MOH     0.0372 ****
10943 HC3    12.070316   30.474592   -2.875096 H    1773 MOH     0.0372 ****
10944 O1     10.812847   30.619112   -4.487300 O    1773 MOH    -0.6497 ****
10945 HO1    11.242395   29.804656   -4.759536 H    1773 MOH     0.4215 ****
10946 HC1    15.302323   30.660753   -5.160465 H    1774 MOH     0.0372 ****
10947 C1     14.779821   31.589926   -4.932777 C    1774 MOH     0.1166 ****
10948 HC2    13.747518   31.376820   -4.654177 H    1774 MOH     0.0372 ****
10949 HC3    14.820235   32.236183   -5.808882 H    1774 MOH     0.0372 ****
10950 O1     15.467445   32.153309   -3.866460 O    1774 MOH    -0.6497 ****
10951 HO1    15.929902   31.438058   -3.423811 H    1774 MOH     0.4215 ****
10952 HC1     8.702632   25.874858    4.479521 H    1775 MOH     0.0372 ****
10953 C1      8.953779   25.354342    5.403710 C    1775 MOH     0.1166 ****
10954 HC2     8.286939   24.500695    5.524625 H    1775 MOH     0.0372 ****
10955 HC3     8.830803   26.024277    6.254359 H    1775 MOH     0.0372 ****
10956 O1     10.293809   24.923640    5.306836 O    1775 MOH    -0.6497 ****
10957 HO1    10.483757   24.368014    6.065562 H    1775 MOH     0.4215 ****
10958 HC1    10.175452   32.805281   -5.541596 H    1776 MOH     0.0372 ****
10959 C1      9.238413   33.061253   -6.034449 C    1776 MOH     0.1166 ****
10960 HC2     8.400100   32.729347   -5.421388 H    1776 MOH     0.0372 ****
10961 HC3     9.219937   32.562373   -7.003186 H    1776 MOH     0.0372 ****
10962 O1      9.207813   34.444806   -6.251531 O    1776 MOH    -0.6497 ****
10963 HO1     8.291558   34.686081   -6.403559 H    1776 MOH     0.4215 ****
10964 HC1     6.845873   28.095321   -7.249259 H    1777 MOH     0.0372 ****
10965 C1      7.151291   27.115117   -7.616247 C    1777 MOH     0.1166 ****
10966 HC2     8.100455   27.194725   -8.145870 H    1777 MOH     0.0372 ****
10967 HC3     6.384570   26.722790   -8.283049 H    1777 MOH     0.0372 ****
10968 O1      7.304867   26.194517   -6.542152 O    1777 MOH    -0.6497 ****
10969 HO1     8.154149   25.760549   -6.650339 H    1777 MOH     0.4215 ****
10970 HC1    12.686926   25.447014   -0.576292 H    1778 MOH     0.0372 ****
10971 C1     13.558147   25.950384   -0.995606 C    1778 MOH     0.1166 ****
10972 HC2    13.260235   26.899561   -1.438962 H    1778 MOH     0.0372 ****
10973 HC3    13.996934   25.338828   -1.784738 H    1778 MOH     0.0372 ****
10974 O1     14.526941   26.225544   -0.009900 O    1778 MOH    -0.6497 ****
10975 HO1    14.957067   25.387410    0.173241 H    1778 MOH     0.4215 ****
10976 HC1     4.131750   31.770780  -12.324164 H    1779 MOH     0.0372 ****
10977 C1      5.055510   31.958982  -12.872172 C    1779 MOH     0.1166 ****
10978 HC2     5.646139   31.044098  -12.834695 H    1779 MOH     0.0372 ****
10979 HC3     5.578012   32.782419  -12.384975 H    1779 MOH     0.0372 ****
10980 O1      4.782423   32.311301  -14.226282 O    1779 MOH    -0.6497 ****
10981 HO1     5.564156   32.733429  -14.589734 H    1779 MOH     0.4215 ****
10982 HC1     1.718425   27.032650   -1.413507 H    1780 MOH     0.0372 ****
10983 C1      2.575213   26.774638   -2.037175 C    1780 MOH     0.1166 ****
10984 HC2     2.761120   27.567864   -2.760545 H    1780 MOH     0.0372 ****
10985 HC3     2.329262   25.870776   -2.594375 H    1780 MOH     0.0372 ****
10986 O1      3.738574   26.583986   -1.236023 O    1780 MOH    -0.6497 ****
10987 HO1     4.434858   26.236158   -1.797466 H    1780 MOH     0.4215 ****
10988 HC1     7.773098   26.692580   -2.230215 H    1781 MOH     0.0372 ****
10989 C1      7.274844   25.916908   -2.810042 C    1781 MOH     0.1166 ****
10990 HC2     8.001728   25.171446   -3.132483 H    1781 MOH     0.0372 ****
10991 HC3     6.812387   26.390884   -3.676248 H    1781 MOH     0.0372 ****
10992 O1      6.299700   25.286164   -2.013133 O    1781 MOH    -0.6497 ****
10993 HO1     6.771395   24.917108   -1.263600 H    1781 MOH     0.4215 ****
10994 HC1    11.113646   32.744452    4.956818 H    1782 MOH     0.0372 ****
10995 C1     10.491263   33.638924    4.947626 C    1782 MOH     0.1166 ****
10996 HC2    10.935245   34.426027    5.557152 H    1782 MOH     0.0372 ****
10997 HC3     9.519582   33.360907    5.357041 H    1782 MOH     0.0372 ****
10998 O1     10.311707   34.091672    3.626043 O    1782 MOH    -0.6497 ****
10999 HO1    11.169072   34.367239    3.292996 H    1782 MOH     0.4215 ****
11000 HC1     6.742527   32.924082    2.797314 H    1783 MOH     0.0372 ****
11001 C1      7.196325   33.803448    3.254105 C    1783 MOH     0.1166 ****
11002 HC2     8.033483   34.120249    2.631851 H    1783 MOH     0.0372 ****
11003 HC3     7.500011   33.554417    4.270925 H    1783 MOH     0.0372 ****
11004 O1      6.246006   34.801207    3.218750 O    1783 MOH    -0.6497 ****
11005 HO1     5.918071   34.856729    2.317896 H    1783 MOH     0.4215 ****
11006 HC1    10.364823   28.983669    4.640035 H    1784 MOH     0.0372 ****
11007 C1     11.187547   28.292913    4.454773 C    1784 MOH     0.1166 ****
11008 HC2    11.462943   28.414163    3.407547 H    1784 MOH     0.0372 ****
11009 HC3    10.879242   27.253105    4.561546 H    1784 MOH     0.0372 ****
11010 O1     12.277584   28.603590    5.339363 O    1784 MOH    -0.6497 ****
11011 HO1    12.888421   27.863028    5.352091 H    1784 MOH     0.4215 ****
11012 HC1     6.112061   30.325173   -4.555182 H    1785 MOH     0.0372 ****
11013 C1      7.039285   30.148401   -4.011417 C    1785 MOH     0.1166 ****
11014 HC2     6.973468   29.223719   -3.437953 H    1785 MOH     0.0372 ****
11015 HC3     7.262720   30.984902   -3.348858 H    1785 MOH     0.0372 ****
11016 O1      8.042720   30.046339   -4.941969 O    1785 MOH    -0.6497 ****
11017 HO1     8.852743   30.387227   -4.555182 H    1785 MOH     0.4215 ****
11018 HC1     4.015125   30.469284   -9.828077 H    1786 MOH     0.0372 ****
11019 C1      4.295140   29.560932   -9.294212 C    1786 MOH     0.1166 ****
11020 HC2     5.103430   29.065319   -9.831613 H    1786 MOH     0.0372 ****
11021 HC3     3.464333   28.855071   -9.270877 H    1786 MOH     0.0372 ****
11022 O1      4.732771   29.822211   -7.974750 O    1786 MOH    -0.6497 ****
11023 HO1     4.385206   29.117574   -7.423207 H    1786 MOH     0.4215 ****
11024 HC1    15.198977   29.941420    3.575132 H    1787 MOH     0.0372 ****
11025 C1     14.367592   30.624827    3.405426 C    1787 MOH     0.1166 ****
11026 HC2    13.445564   30.164731    3.762515 H    1787 MOH     0.0372 ****
11027 HC3    14.297156   30.813030    2.334159 H    1787 MOH     0.0372 ****
11028 O1     14.695527   31.845490    4.057379 O    1787 MOH    -0.6497 ****
11029 HO1    15.308673   31.648306    4.769435 H    1787 MOH     0.4215 ****
11030 HC1     7.705548   32.170864   12.058292 H    1788 MOH     0.0372 ****
11031 C1      6.814119   32.797525   12.026472 C    1788 MOH     0.1166 ****
11032 HC2     5.925577   32.166781   11.986167 H    1788 MOH     0.0372 ****
11033 HC3     6.823356   33.415613   11.128446 H    1788 MOH     0.0372 ****
11034 O1      6.824511   33.645048   13.147943 O    1788 MOH    -0.6497 ****
11035 HO1     7.580263   34.225169   13.031271 H    1788 MOH     0.4215 ****
11036 HC1    14.958799   32.767722   -0.402344 H    1789 MOH     0.0372 ****
11037 C1     13.949013   32.446839   -0.658316 C    1789 MOH     0.1166 ****
11038 HC2    13.251574   32.877541    0.060811 H    1789 MOH     0.0372 ****
11039 HC3    13.867607   31.360491   -0.623668 H    1789 MOH     0.0372 ****
11040 O1     13.593943   32.906119   -1.930402 O    1789 MOH    -0.6497 ****
11041 HO1    14.192655   32.498687   -2.559727 H    1789 MOH     0.4215 ****
11042 HC1     9.362543   33.432759   10.644785 H    1790 MOH     0.0372 ****
11043 C1      9.587132   34.498695   10.694990 C    1790 MOH     0.1166 ****
11044 HC2     9.228020   35.046564    9.823834 H    1790 MOH     0.0372 ****
11045 HC3    10.673128   34.545236   10.622865 H    1790 MOH     0.0372 ****
11046 O1      9.226288   35.096779   11.961418 O    1790 MOH    -0.6497 ****
11047 HO1     9.154119   36.045548   11.835553 H    1790 MOH     0.4215 ****
11048 HC1     8.449175   19.981794    2.012426 H    1791 MOH     0.0372 ****
11049 C1      9.030566   20.739095    2.539220 C    1791 MOH     0.1166 ****
11050 HC2    10.084231   20.494962    2.402042 H    1791 MOH     0.0372 ****
11051 HC3     8.800781   20.749709    3.604123 H    1791 MOH     0.0372 ****
11052 O1      8.902395   21.999357    1.986970 O    1791 MOH    -0.6497 ****
11053 HO1     9.700870   22.475783    2.228093 H    1791 MOH     0.4215 ****
11054 HC1     3.604629   31.338853    7.094402 H    1792 MOH     0.0372 ****
11055 C1      3.949884   30.495821    6.496897 C    1792 MOH     0.1166 ****
11056 HC2     4.690047   29.963873    7.095816 H    1792 MOH     0.0372 ****
11057 HC3     4.391557   30.881615    5.578365 H    1792 MOH     0.0372 ****
11058 O1      2.897375   29.578079    6.163143 O    1792 MOH    -0.6497 ****
11059 HO1     3.176235   29.064910    5.401589 H    1792 MOH     0.4215 ****
11060 HC1    17.103078   28.476216   -1.467247 H    1793 MOH     0.0372 ****
11061 C1     16.197215   28.800774   -1.978485 C    1793 MOH     0.1166 ****
11062 HC2    15.311560   28.408039   -1.479267 H    1793 MOH     0.0372 ****
11063 HC3    16.204721   28.452538   -3.011568 H    1793 MOH     0.0372 ****
11064 O1     16.104262   30.192900   -1.964343 O    1793 MOH    -0.6497 ****
11065 HO1    16.374462   30.478266   -1.088237 H    1793 MOH     0.4215 ****
11066 HC1     9.637362   33.040024    0.517602 H    1794 MOH     0.0372 ****
11067 C1     10.300737   32.218220    0.787010 C    1794 MOH     0.1166 ****
11068 HC2    11.316874   32.604423    0.864791 H    1794 MOH     0.0372 ****
11069 HC3    10.286881   31.435608    0.028284 H    1794 MOH     0.0372 ****
11070 O1      9.922573   31.791193    2.073944 O    1794 MOH    -0.6497 ****
11071 HO1     9.976266   32.560332    2.645286 H    1794 MOH     0.4215 ****
11072 HC1     4.123667   32.003073   -4.360021 H    1795 MOH     0.0372 ****
11073 C1      3.493200   31.689539   -3.528463 C    1795 MOH     0.1166 ****
11074 HC2     2.516901   31.376820   -3.898987 H    1795 MOH     0.0372 ****
11075 HC3     3.322882   32.516650   -2.838327 H    1795 MOH     0.0372 ****
11076 O1      4.095376   30.635442   -2.832670 O    1795 MOH    -0.6497 ****
11077 HO1     3.444703   30.281082   -2.223144 H    1795 MOH     0.4215 ****
11078 HC1    -3.876099   26.667676   -1.163191 H    1796 MOH     0.0372 ****
11079 C1     -3.232353   27.451921   -1.559878 C    1796 MOH     0.1166 ****
11080 HC2    -3.198290   28.253313   -0.822365 H    1796 MOH     0.0372 ****
11081 HC3    -3.631302   27.892013   -2.474874 H    1796 MOH     0.0372 ****
11082 O1     -1.920613   26.987335   -1.790395 O    1796 MOH    -0.6497 ****
11083 HO1    -1.478363   27.774438   -2.115664 H    1796 MOH     0.4215 ****
11084 HC1     2.893910   33.808347    3.015103 H    1797 MOH     0.0372 ****
11085 C1      3.056723   33.584219    4.069399 C    1797 MOH     0.1166 ****
11086 HC2     3.624259   32.657495    4.161323 H    1797 MOH     0.0372 ****
11087 HC3     2.072918   33.466644    4.523362 H    1797 MOH     0.0372 ****
11088 O1      3.749544   34.660770    4.661248 O    1797 MOH    -0.6497 ****
11089 HO1     4.587856   34.751401    4.203043 H    1797 MOH     0.4215 ****
11090 HC1     0.829306   27.742186    7.774639 H    1798 MOH     0.0372 ****
11091 C1      0.436130   28.176970    8.693171 C    1798 MOH     0.1166 ****
11092 HC2     0.251956   29.241682    8.551749 H    1798 MOH     0.0372 ****
11093 HC3     1.135301   28.032859    9.516950 H    1798 MOH     0.0372 ****
11094 O1     -0.728385   27.516016    9.021975 O    1798 MOH    -0.6497 ****
11095 HO1    -1.152738   27.965498    9.756659 H    1798 MOH     0.4215 ****
11096 HC1     2.616205   33.703427   -6.320828 H    1799 MOH     0.0372 ****
11097 C1      2.482837   32.680766   -6.673674 C    1799 MOH     0.1166 ****
11098 HC2     1.484021   32.603198   -7.102181 H    1799 MOH     0.0372 ****
11099 HC3     2.556161   31.963882   -5.856259 H    1799 MOH     0.0372 ****
11100 O1      3.403133   32.403565   -7.685544 O    1799 MOH    -0.6497 ****
11101 HO1     3.519181   31.455612   -7.777468 H    1799 MOH     0.4215 ****
11102 HC1    16.702974   27.370272    2.969848 H    1800 MOH     0.0372 ****
11103 C1     17.086912   27.967131    2.142534 C    1800 MOH     0.1166 ****
11104 HC2    17.774536   27.349859    1.564120 H    1800 MOH     0.0372 ****
11105 HC3    17.588052   28.828943    2.584475 H    1800 MOH     0.0372 ****
11106 O1     16.021701   28.406814    1.355524 O    1800 MOH    -0.6497 ****
11107 HO1    15.492271   27.650738    1.093894 H    1800 MOH     0.4215 ****
11108 HC1     7.169189   36.366431    7.570285 H    1801 MOH     0.0372 ****
11109 C1      7.232698   35.443382    6.993993 C    1801 MOH     0.1166 ****
11110 HC2     8.264423   35.239258    6.708322 H    1801 MOH     0.0372 ****
11111 HC3     6.615510   35.555242    6.103038 H    1801 MOH     0.0372 ****
11112 O1      6.714814   34.390101    7.759083 O    1801 MOH    -0.6497 ****
11113 HO1     6.964807   33.565440    7.334818 H    1801 MOH     0.4215 ****
11114 HC1     8.755748   34.109226   -9.211480 H    1802 MOH     0.0372 ****
11115 C1      7.831410   34.624436   -9.473110 C    1802 MOH     0.1166 ****
11116 HC2     7.118382   34.577487   -8.649330 H    1802 MOH     0.0372 ****
11117 HC3     7.395511   34.178220  -10.366186 H    1802 MOH     0.0372 ****
11118 O1      8.069278   35.973696   -9.752417 O    1802 MOH    -0.6497 ****
11119 HO1     8.573883   36.003907  -10.568418 H    1802 MOH     0.4215 ****
11120 HC1     0.361652   28.248006   12.992380 H    1803 MOH     0.0372 ****
11121 C1      1.255968   27.805465   13.432200 C    1803 MOH     0.1166 ****
11122 HC2     1.321786   28.078583   14.485082 H    1803 MOH     0.0372 ****
11123 HC3     2.146242   28.175338   12.923083 H    1803 MOH     0.0372 ****
11124 O1      1.204583   26.392925   13.316235 O    1803 MOH    -0.6497 ****
11125 HO1     2.109869   26.084698   13.404623 H    1803 MOH     0.4215 ****
11126 HC1    -0.984729   23.889547   -8.671958 H    1804 MOH     0.0372 ****
11127 C1     -0.470887   24.198591   -7.761911 C    1804 MOH     0.1166 ****
11128 HC2     0.612222   24.172463   -7.877877 H    1804 MOH     0.0372 ****
11129 HC3    -0.773996   23.559274   -6.931768 H    1804 MOH     0.0372 ****
11130 O1     -0.910250   25.455996   -7.479069 O    1804 MOH    -0.6497 ****
11131 HO1    -1.242227   25.818112   -8.304262 H    1804 MOH     0.4215 ****
11132 HC1     4.092490   31.990826   10.794692 H    1805 MOH     0.0372 ****
11133 C1      3.681994   31.034300   11.117840 C    1805 MOH     0.1166 ****
11134 HC2     4.460839   30.271692   11.139053 H    1805 MOH     0.0372 ****
11135 HC3     2.896797   30.755467   10.415683 H    1805 MOH     0.0372 ****
11136 O1      3.086168   31.178820   12.373661 O    1805 MOH    -0.6497 ****
11137 HO1     3.706820   31.627893   12.952075 H    1805 MOH     0.4215 ****
11138 HC1     0.866834   27.098378   -4.938434 H    1806 MOH     0.0372 ****
11139 C1     -0.015357   27.681765   -4.677512 C    1806 MOH     0.1166 ****
11140 HC2     0.288906   28.680341   -4.366385 H    1806 MOH     0.0372 ****
11141 HC3    -0.550561   27.191867   -3.864339 H    1806 MOH     0.0372 ****
11142 O1     -0.836350   27.736879   -5.844945 O    1806 MOH    -0.6497 ****
11143 HO1    -0.926994   26.848122   -6.197791 H    1806 MOH     0.4215 ****
11144 HC1     2.597152   28.961215    0.127986 H    1807 MOH     0.0372 ****
11145 C1      2.285383   30.004698    0.092631 C    1807 MOH     0.1166 ****
11146 HC2     3.091364   30.661978    0.420728 H    1807 MOH     0.0372 ****
11147 HC3     1.442452   30.127989    0.771453 H    1807 MOH     0.0372 ****
11148 O1      1.832163   30.350893   -1.201375 O    1807 MOH    -0.6497 ****
11149 HO1     1.620853   31.286598   -1.171676 H    1807 MOH     0.4215 ****
11150 HC1    -1.677549   28.132063    0.944694 H    1808 MOH     0.0372 ****
11151 C1     -0.906209   27.838941    1.657458 C    1808 MOH     0.1166 ****
11152 HC2    -0.008429   27.582561    1.094601 H    1808 MOH     0.0372 ****
11153 HC3    -1.236453   26.950593    2.196273 H    1808 MOH     0.0372 ****
11154 O1     -0.645824   28.916308    2.566090 O    1808 MOH    -0.6497 ****
11155 HO1    -1.312086   28.891405    3.256934 H    1808 MOH     0.4215 ****
11156 HC1    -1.806875   28.742803    6.827823 H    1809 MOH     0.0372 ****
11157 C1     -1.323633   28.592159    5.862622 C    1809 MOH     0.1166 ****
11158 HC2    -0.868104   27.602565    5.842823 H    1809 MOH     0.0372 ****
11159 HC3    -0.563263   29.361299    5.724029 H    1809 MOH     0.0372 ****
11160 O1     -2.354781   28.641557    4.876208 O    1809 MOH    -0.6497 ****
11161 HO1    -2.867468   29.442540    5.006316 H    1809 MOH     0.4215 ****
11162 HC1     7.628183   32.777929   -1.955858 H    1810 MOH     0.0372 ****
11163 C1      8.409915   33.451130   -2.307290 C    1810 MOH     0.1166 ****
11164 HC2     8.969367   33.016346   -3.135312 H    1810 MOH     0.0372 ****
11165 HC3     9.095230   33.656071   -1.485631 H    1810 MOH     0.0372 ****
11166 O1      7.836029   34.650564   -2.752767 O    1810 MOH    -0.6497 ****
11167 HO1     8.031173   35.293963   -2.066873 H    1810 MOH     0.4215 ****
11168 HC1   -22.266783  -18.292136  -15.889255 H    1811 MOH     0.0372 ****
11169 C1    -23.303127  -18.153332  -15.582371 C    1811 MOH     0.1166 ****
11170 HC2   -23.866621  -17.789174  -16.440798 H    1811 MOH     0.0372 ****
11171 HC3   -23.372986  -17.403380  -14.793947 H    1811 MOH     0.0372 ****
11172 O1    -23.828516  -19.396040  -15.165178 O    1811 MOH    -0.6497 ****
11173 HO1   -24.591195  -19.243763  -14.603028 H    1811 MOH     0.4215 ****
11174 HC1   -15.659009  -27.594074   -7.291544 H    1812 MOH     0.0372 ****
11175 C1    -15.597810  -26.814319   -6.533525 C    1812 MOH     0.1166 ****
11176 HC2   -15.237544  -27.260126   -5.605801 H    1812 MOH     0.0372 ****
11177 HC3   -16.590853  -26.388925   -6.387861 H    1812 MOH     0.0372 ****
11178 O1    -14.726589  -25.791657   -6.961325 O    1812 MOH    -0.6497 ****
11179 HO1   -13.839779  -26.151732   -7.027793 H    1812 MOH     0.4215 ****
11180 HC1    -9.400532  -22.844921  -13.072142 H    1813 MOH     0.0372 ****
11181 C1     -8.966942  -22.651820  -12.091384 C    1813 MOH     0.1166 ****
11182 HC2    -8.681154  -21.600989  -12.040473 H    1813 MOH     0.0372 ****
11183 HC3    -8.078978  -23.271132  -11.964812 H    1813 MOH     0.0372 ****
11184 O1     -9.921302  -22.966579  -11.083757 O    1813 MOH    -0.6497 ****
11185 HO1    -9.720384  -23.858193  -10.791015 H    1813 MOH     0.4215 ****
11186 HC1    -5.330790  -24.456277  -17.687427 H    1814 MOH     0.0372 ****
11187 C1     -5.525357  -23.714898  -16.912438 C    1814 MOH     0.1166 ****
11188 HC2    -6.589414  -23.672849  -16.679800 H    1814 MOH     0.0372 ****
11189 HC3    -5.223981  -22.726529  -17.259628 H    1814 MOH     0.0372 ****
11190 O1     -4.855631  -24.045171  -15.701165 O    1814 MOH    -0.6497 ****
11191 HO1    -5.073292  -24.939643  -15.428928 H    1814 MOH     0.4215 ****
11192 HC1   -23.155325  -25.064975   -6.835460 H    1815 MOH     0.0372 ****
11193 C1    -24.175503  -25.357689   -6.587265 C    1815 MOH     0.1166 ****
11194 HC2   -24.336584  -25.300126   -5.511756 H    1815 MOH     0.0372 ****
11195 HC3   -24.383927  -26.379943   -6.904049 H    1815 MOH     0.0372 ****
11196 O1    -25.061736  -24.465259   -7.188306 O    1815 MOH    -0.6497 ****
11197 HO1   -24.610248  -24.088854   -7.947739 H    1815 MOH     0.4215 ****
11198 HC1   -10.447846  -20.092103  -16.158663 H    1816 MOH     0.0372 ****
11199 C1    -10.399348  -21.179676  -16.209574 C    1816 MOH     0.1166 ****
11200 HC2   -10.777513  -21.534444  -17.167704 H    1816 MOH     0.0372 ****
11201 HC3   -11.006144  -21.626300  -15.421857 H    1816 MOH     0.0372 ****
11202 O1     -9.062782  -21.614053  -16.136035 O    1816 MOH    -0.6497 ****
11203 HO1    -9.095114  -22.573436  -16.114822 H    1816 MOH     0.4215 ****
11204 HC1   -28.556437  -22.278273  -10.631209 H    1817 MOH     0.0372 ****
11205 C1    -27.516052  -22.250920  -10.957185 C    1817 MOH     0.1166 ****
11206 HC2   -26.931773  -22.890645  -10.294626 H    1817 MOH     0.0372 ****
11207 HC3   -27.174838  -21.217235  -10.903445 H    1817 MOH     0.0372 ****
11208 O1    -27.449079  -22.733061  -12.280182 O    1817 MOH    -0.6497 ****
11209 HO1   -28.043750  -23.485871  -12.324023 H    1817 MOH     0.4215 ****
11210 HC1    -5.651797  -22.426467  -13.905820 H    1818 MOH     0.0372 ****
11211 C1     -5.569236  -21.486679  -13.359934 C    1818 MOH     0.1166 ****
11212 HC2    -6.396002  -20.831032  -13.632877 H    1818 MOH     0.0372 ****
11213 HC3    -4.611989  -21.024542  -13.604593 H    1818 MOH     0.0372 ****
11214 O1     -5.610228  -21.844713  -12.018552 O    1818 MOH    -0.6497 ****
11215 HO1    -5.386216  -21.101701  -11.454281 H    1818 MOH     0.4215 ****
11216 HC1   -17.669920  -28.456294   -5.212650 H    1819 MOH     0.0372 ****
11217 C1    -17.370276  -29.503451   -5.227499 C    1819 MOH     0.1166 ****
11218 HC2   -16.736345  -29.692062   -6.094412 H    1819 MOH     0.0372 ****
11219 HC3   -18.238033  -30.157465   -5.306695 H    1819 MOH     0.0372 ****
11220 O1    -16.665331  -29.814536   -4.033903 O    1819 MOH    -0.6497 ****
11221 HO1   -16.231164  -30.662876   -4.152697 H    1819 MOH     0.4215 ****
11222 HC1   -20.803778  -13.548291  -11.428826 H    1820 MOH     0.0372 ****
11223 C1    -21.258152  -13.250270  -12.373520 C    1820 MOH     0.1166 ****
11224 HC2   -22.338952  -13.384992  -12.325437 H    1820 MOH     0.0372 ****
11225 HC3   -20.835532  -13.874890  -13.161237 H    1820 MOH     0.0372 ****
11226 O1    -20.976405  -11.892844  -12.633028 O    1820 MOH    -0.6497 ****
11227 HO1   -21.246028  -11.698518  -13.533882 H    1820 MOH     0.4215 ****
11228 HC1   -16.996153  -27.340551  -12.636564 H    1821 MOH     0.0372 ****
11229 C1    -17.136449  -27.494869  -13.705709 C    1821 MOH     0.1166 ****
11230 HC2   -17.332748  -26.540385  -14.195027 H    1821 MOH     0.0372 ****
11231 HC3   -17.970720  -28.173786  -13.881779 H    1821 MOH     0.0372 ****
11232 O1    -15.960964  -28.049270  -14.257253 O    1821 MOH    -0.6497 ****
11233 HO1   -15.314331  -28.150108  -13.555096 H    1821 MOH     0.4215 ****
11234 HC1   -10.534448  -33.429575  -12.391198 H    1822 MOH     0.0372 ****
11235 C1    -10.700725  -33.342618  -11.317102 C    1822 MOH     0.1166 ****
11236 HC2   -10.628556  -32.286479  -11.057594 H    1822 MOH     0.0372 ****
11237 HC3    -9.913797  -33.896611  -10.804450 H    1822 MOH     0.0372 ****
11238 O1    -12.026321  -33.861501  -11.083050 O    1822 MOH    -0.6497 ****
11239 HO1   -12.337513  -33.512857  -10.244422 H    1822 MOH     0.4215 ****
11240 HC1   -11.668364  -16.032482   -3.210123 H    1823 MOH     0.0372 ****
11241 C1    -12.379660  -16.858368   -3.220730 C    1823 MOH     0.1166 ****
11242 HC2   -12.017661  -17.589541   -3.944100 H    1823 MOH     0.0372 ****
11243 HC3   -13.368661  -16.486046   -3.490845 H    1823 MOH     0.0372 ****
11244 O1    -12.443168  -17.431957   -1.935917 O    1823 MOH    -0.6497 ****
11245 HO1   -12.719142  -16.748141   -1.321441 H    1823 MOH     0.4215 ****
11246 HC1   -15.738684  -14.502776  -20.218163 H    1824 MOH     0.0372 ****
11247 C1    -16.319498  -14.121472  -19.378120 C    1824 MOH     0.1166 ****
11248 HC2   -16.022163  -13.114323  -19.086085 H    1824 MOH     0.0372 ****
11249 HC3   -16.111652  -14.776710  -18.531713 H    1824 MOH     0.0372 ****
11250 O1    -17.698788  -14.165154  -19.663084 O    1824 MOH    -0.6497 ****
11251 HO1   -18.104088  -14.839989  -19.113662 H    1824 MOH     0.4215 ****
11252 HC1   -10.940903  -27.291562  -13.572773 H    1825 MOH     0.0372 ****
11253 C1    -10.957646  -28.298710  -13.990673 C    1825 MOH     0.1166 ****
11254 HC2   -10.455929  -28.957215  -13.282859 H    1825 MOH     0.0372 ****
11255 HC3   -10.406277  -28.327288  -14.931125 H    1825 MOH     0.0372 ****
11256 O1    -12.300563  -28.734311  -14.139873 O    1825 MOH    -0.6497 ****
11257 HO1   -12.792465  -28.473440  -13.357106 H    1825 MOH     0.4215 ****
11258 HC1   -16.806204  -23.500568  -14.441100 H    1826 MOH     0.0372 ****
11259 C1    -17.869684  -23.299710  -14.572622 C    1826 MOH     0.1166 ****
11260 HC2   -18.451653  -24.220718  -14.545752 H    1826 MOH     0.0372 ****
11261 HC3   -18.034806  -22.829000  -15.542066 H    1826 MOH     0.0372 ****
11262 O1    -18.320017  -22.409320  -13.593279 O    1826 MOH    -0.6497 ****
11263 HO1   -18.209743  -21.514848  -13.923498 H    1826 MOH     0.4215 ****
11264 HC1   -13.093265  -20.573020  -17.237708 H    1827 MOH     0.0372 ****
11265 C1    -13.497410  -20.227233  -18.188766 C    1827 MOH     0.1166 ****
11266 HC2   -14.430408  -20.750608  -18.400898 H    1827 MOH     0.0372 ****
11267 HC3   -12.776299  -20.372161  -18.992747 H    1827 MOH     0.0372 ****
11268 O1    -13.743938  -18.861234  -18.034617 O    1827 MOH    -0.6497 ****
11269 HO1   -12.919482  -18.405629  -17.846527 H    1827 MOH     0.4215 ****
11270 HC1   -16.141097  -28.253803  -10.614946 H    1828 MOH     0.0372 ****
11271 C1    -15.387077  -29.007429  -10.842634 C    1828 MOH     0.1166 ****
11272 HC2   -15.873206  -29.897002  -11.242149 H    1828 MOH     0.0372 ****
11273 HC3   -14.898062  -29.296877   -9.912788 H    1828 MOH     0.0372 ****
11274 O1    -14.452925  -28.465275  -11.787329 O    1828 MOH    -0.6497 ****
11275 HO1   -14.236418  -27.567537  -11.527820 H    1828 MOH     0.4215 ****
11276 HC1   -17.895664  -19.901043  -19.701268 H    1829 MOH     0.0372 ****
11277 C1    -18.132955  -20.187633  -18.675963 C    1829 MOH     0.1166 ****
11278 HC2   -17.370853  -20.850220  -18.266548 H    1829 MOH     0.0372 ****
11279 HC3   -19.086160  -20.716315  -18.695055 H    1829 MOH     0.0372 ****
11280 O1    -18.234569  -19.061276  -17.838041 O    1829 MOH    -0.6497 ****
11281 HO1   -17.460919  -18.504834  -17.957542 H    1829 MOH     0.4215 ****
11282 HC1   -20.798581  -30.477939  -11.126891 H    1830 MOH     0.0372 ****
11283 C1    -20.710247  -29.492020  -10.670807 C    1830 MOH     0.1166 ****
11284 HC2   -21.311269  -29.460177   -9.762882 H    1830 MOH     0.0372 ****
11285 HC3   -21.062431  -28.756765  -11.394177 H    1830 MOH     0.0372 ****
11286 O1    -19.370217  -29.288304  -10.363216 O    1830 MOH    -0.6497 ****
11287 HO1   -18.885243  -29.754932  -11.046988 H    1830 MOH     0.4215 ****
11288 HC1   -10.853723  -18.685688  -18.904358 H    1831 MOH     0.0372 ****
11289 C1    -10.433412  -17.802238  -18.423526 C    1831 MOH     0.1166 ****
11290 HC2   -10.179955  -17.060451  -19.180837 H    1831 MOH     0.0372 ****
11291 HC3    -9.546602  -18.085154  -17.857133 H    1831 MOH     0.0372 ****
11292 O1    -11.438579  -17.305808  -17.600453 O    1831 MOH    -0.6497 ****
11293 HO1   -11.082354  -17.109441  -16.731419 H    1831 MOH     0.4215 ****
11294 HC1   -23.019648  -23.661826  -13.443373 H    1832 MOH     0.0372 ****
11295 C1    -21.987923  -23.945559  -13.649141 C    1832 MOH     0.1166 ****
11296 HC2   -21.717146  -24.771445  -12.992239 H    1832 MOH     0.0372 ****
11297 HC3   -21.339559  -23.094769  -13.438423 H    1832 MOH     0.0372 ****
11298 O1    -21.849936  -24.264809  -15.011028 O    1832 MOH    -0.6497 ****
11299 HO1   -22.146694  -23.471991  -15.463577 H    1832 MOH     0.4215 ****
11300 HC1   -11.394123  -28.224001   -5.800255 H    1833 MOH     0.0372 ****
11301 C1    -11.319067  -27.182151   -6.109968 C    1833 MOH     0.1166 ****
11302 HC2   -10.280414  -26.957614   -6.353213 H    1833 MOH     0.0372 ****
11303 HC3   -11.681066  -26.580801   -5.274875 H    1833 MOH     0.0372 ****
11304 O1    -12.207032  -27.024567   -7.186185 O    1833 MOH    -0.6497 ****
11305 HO1   -11.839837  -27.545084   -7.903898 H    1833 MOH     0.4215 ****
11306 HC1   -23.729211  -19.907167  -12.246241 H    1834 MOH     0.0372 ****
11307 C1    -23.968812  -20.539951  -11.392056 C    1834 MOH     0.1166 ****
11308 HC2   -25.014393  -20.415436  -11.111335 H    1834 MOH     0.0372 ****
11309 HC3   -23.336613  -20.232540  -10.558377 H    1834 MOH     0.0372 ****
11310 O1    -23.666858  -21.890028  -11.708133 O    1834 MOH    -0.6497 ****
11311 HO1   -24.129315  -22.163147  -12.503628 H    1834 MOH     0.4215 ****
11312 HC1    -7.894226  -26.747775  -19.365392 H    1835 MOH     0.0372 ****
11313 C1     -8.416728  -25.818602  -19.137704 C    1835 MOH     0.1166 ****
11314 HC2    -9.449030  -26.031707  -18.859103 H    1835 MOH     0.0372 ****
11315 HC3    -8.376313  -25.172345  -20.013809 H    1835 MOH     0.0372 ****
11316 O1     -7.729103  -25.255219  -18.071386 O    1835 MOH    -0.6497 ****
11317 HO1    -7.266646  -25.970470  -17.628738 H    1835 MOH     0.4215 ****
11318 HC1   -14.493917  -31.533670   -9.725405 H    1836 MOH     0.0372 ****
11319 C1    -14.242769  -32.054186   -8.801217 C    1836 MOH     0.1166 ****
11320 HC2   -14.909609  -32.907833   -8.680301 H    1836 MOH     0.0372 ****
11321 HC3   -14.365745  -31.384251   -7.950567 H    1836 MOH     0.0372 ****
11322 O1    -12.902739  -32.484888   -8.898090 O    1836 MOH    -0.6497 ****
11323 HO1   -12.712791  -33.040514   -8.139365 H    1836 MOH     0.4215 ****
11324 HC1   -22.967686  -25.305434  -10.504637 H    1837 MOH     0.0372 ****
11325 C1    -23.977472  -24.906167  -10.412713 C    1837 MOH     0.1166 ****
11326 HC2   -24.590041  -25.647546   -9.899354 H    1837 MOH     0.0372 ****
11327 HC3   -24.378730  -24.714290  -11.408319 H    1837 MOH     0.0372 ****
11328 O1    -23.909345  -23.717348   -9.650452 O    1837 MOH    -0.6497 ****
11329 HO1   -23.575059  -23.024142  -10.224623 H    1837 MOH     0.4215 ****
11330 HC1   -10.509622  -31.961514  -14.781219 H    1838 MOH     0.0372 ****
11331 C1     -9.638401  -31.458144  -15.200533 C    1838 MOH     0.1166 ****
11332 HC2    -9.936313  -30.508966  -15.643889 H    1838 MOH     0.0372 ****
11333 HC3    -9.199615  -32.069700  -15.989664 H    1838 MOH     0.0372 ****
11334 O1     -8.669607  -31.182984  -14.214826 O    1838 MOH    -0.6497 ****
11335 HO1    -8.239481  -32.021118  -14.031685 H    1838 MOH     0.4215 ****
11336 HC1   -27.223913  -18.069233  -12.080778 H    1839 MOH     0.0372 ****
11337 C1    -26.361351  -17.606279  -12.560196 C    1839 MOH     0.1166 ****
11338 HC2   -25.574423  -17.491561  -11.814199 H    1839 MOH     0.0372 ****
11339 HC3   -26.678317  -16.614236  -12.882637 H    1839 MOH     0.0372 ****
11340 O1    -25.978568  -18.393790  -13.719144 O    1839 MOH    -0.6497 ****
11341 HO1   -26.672543  -18.347658  -14.380289 H    1839 MOH     0.4215 ****
11342 HC1   -20.537619  -22.631816   -5.820055 H    1840 MOH     0.0372 ****
11343 C1    -19.929669  -21.761022   -6.068249 C    1840 MOH     0.1166 ****
11344 HC2   -18.880047  -22.030466   -6.182800 H    1840 MOH     0.0372 ****
11345 HC3   -19.986250  -21.038831   -5.252955 H    1840 MOH     0.0372 ****
11346 O1    -20.324577  -21.198864   -7.278109 O    1840 MOH    -0.6497 ****
11347 HO1   -20.042830  -21.797356   -7.973902 H    1840 MOH     0.4215 ****
11348 HC1   -14.956951  -16.381943  -16.507974 H    1841 MOH     0.0372 ****
11349 C1    -15.971933  -16.765288  -16.611918 C    1841 MOH     0.1166 ****
11350 HC2   -16.693044  -15.947975  -16.590705 H    1841 MOH     0.0372 ****
11351 HC3   -16.206915  -17.460126  -15.805816 H    1841 MOH     0.0372 ****
11352 O1    -16.099528  -17.477273  -17.794201 O    1841 MOH    -0.6497 ****
11353 HO1   -15.378994  -18.110466  -17.826021 H    1841 MOH     0.4215 ****
11354 HC1   -12.082902  -24.664076   -9.248108 H    1842 MOH     0.0372 ****
11355 C1    -12.705285  -23.769604   -9.257301 C    1842 MOH     0.1166 ****
11356 HC2   -12.261303  -22.982501   -8.647774 H    1842 MOH     0.0372 ****
11357 HC3   -13.676966  -24.047621   -8.847886 H    1842 MOH     0.0372 ****
11358 O1    -12.884841  -23.316856  -10.578883 O    1842 MOH    -0.6497 ****
11359 HO1   -12.027476  -23.041289  -10.911930 H    1842 MOH     0.4215 ****
11360 HC1   -20.342475  -18.696302  -15.066183 H    1843 MOH     0.0372 ****
11361 C1    -20.161187  -19.734478  -14.786876 C    1843 MOH     0.1166 ****
11362 HC2   -20.820521  -20.371753  -15.375896 H    1843 MOH     0.0372 ****
11363 HC3   -20.385776  -19.889204  -13.731165 H    1843 MOH     0.0372 ****
11364 O1    -18.830972  -20.130070  -15.027999 O    1843 MOH    -0.6497 ****
11365 HO1   -18.651416  -20.021884  -15.964916 H    1843 MOH     0.4215 ****
11366 HC1   -16.454021  -24.484446  -11.407612 H    1844 MOH     0.0372 ****
11367 C1    -16.000223  -23.605080  -10.950821 C    1844 MOH     0.1166 ****
11368 HC2   -15.163065  -23.288279  -11.573075 H    1844 MOH     0.0372 ****
11369 HC3   -15.696537  -23.854111   -9.934002 H    1844 MOH     0.0372 ****
11370 O1    -16.950542  -22.607321  -10.986177 O    1844 MOH    -0.6497 ****
11371 HO1   -17.278477  -22.551799  -11.887031 H    1844 MOH     0.4215 ****
11372 HC1   -24.621218  -13.011853  -13.736822 H    1845 MOH     0.0372 ****
11373 C1    -25.528812  -13.075540  -13.137196 C    1845 MOH     0.1166 ****
11374 HC2   -26.139649  -13.922247  -13.449737 H    1845 MOH     0.0372 ****
11375 HC3   -26.077872  -12.143509  -13.269425 H    1845 MOH     0.0372 ****
11376 O1    -25.156999  -13.258843  -11.812785 O    1845 MOH    -0.6497 ****
11377 HO1   -24.629878  -14.061459  -11.814199 H    1845 MOH     0.4215 ****
11378 HC1    -9.091073  -21.165388   -6.030772 H    1846 MOH     0.0372 ****
11379 C1     -9.343952  -20.300718   -5.417004 C    1846 MOH     0.1166 ****
11380 HC2    -8.536239  -20.117414   -4.709190 H    1846 MOH     0.0372 ****
11381 HC3   -10.261939  -20.533419   -4.878188 H    1846 MOH     0.0372 ****
11382 O1     -9.536210  -19.192324   -6.273310 O    1846 MOH    -0.6497 ****
11383 HO1   -10.221525  -19.463401   -6.888493 H    1846 MOH     0.4215 ****
11384 HC1   -12.831725  -28.424859   -9.564892 H    1847 MOH     0.0372 ****
11385 C1    -12.009001  -29.115615   -9.750154 C    1847 MOH     0.1166 ****
11386 HC2   -11.733605  -28.994365  -10.797379 H    1847 MOH     0.0372 ****
11387 HC3   -12.317306  -30.155423   -9.643381 H    1847 MOH     0.0372 ****
11388 O1    -10.918964  -28.804938   -8.865563 O    1847 MOH    -0.6497 ****
11389 HO1   -10.308127  -29.545500   -8.852835 H    1847 MOH     0.4215 ****
11390 HC1    -7.997571  -27.467108  -10.629795 H    1848 MOH     0.0372 ****
11391 C1     -8.828956  -26.783701  -10.799500 C    1848 MOH     0.1166 ****
11392 HC2    -9.750984  -27.243797  -10.442411 H    1848 MOH     0.0372 ****
11393 HC3    -8.899392  -26.595498  -11.870767 H    1848 MOH     0.0372 ****
11394 O1     -8.501021  -25.563038  -10.147548 O    1848 MOH    -0.6497 ****
11395 HO1    -7.887875  -25.760222   -9.435491 H    1848 MOH     0.4215 ****
11396 HC1   -15.491001  -25.237664   -2.146635 H    1849 MOH     0.0372 ****
11397 C1    -16.382429  -24.611003   -2.178455 C    1849 MOH     0.1166 ****
11398 HC2   -17.270971  -25.241747   -2.218760 H    1849 MOH     0.0372 ****
11399 HC3   -16.373192  -23.992915   -3.076480 H    1849 MOH     0.0372 ****
11400 O1    -16.372037  -23.763480   -1.056983 O    1849 MOH    -0.6497 ****
11401 HO1   -15.616286  -23.183359   -1.173656 H    1849 MOH     0.4215 ****
11402 HC1    -8.237749  -24.640805  -14.607270 H    1850 MOH     0.0372 ****
11403 C1     -9.247535  -24.961689  -14.863243 C    1850 MOH     0.1166 ****
11404 HC2    -9.944974  -24.530987  -14.144115 H    1850 MOH     0.0372 ****
11405 HC3    -9.328941  -26.048037  -14.828595 H    1850 MOH     0.0372 ****
11406 O1     -9.602605  -24.502409  -16.135328 O    1850 MOH    -0.6497 ****
11407 HO1    -9.003893  -24.909841  -16.764653 H    1850 MOH     0.4215 ****
11408 HC1   -13.834005  -23.975769   -3.560141 H    1851 MOH     0.0372 ****
11409 C1    -13.609416  -22.909833   -3.509937 C    1851 MOH     0.1166 ****
11410 HC2   -13.968528  -22.361963   -4.381092 H    1851 MOH     0.0372 ****
11411 HC3   -12.523420  -22.863292   -3.582061 H    1851 MOH     0.0372 ****
11412 O1    -13.970260  -22.311749   -2.243508 O    1851 MOH    -0.6497 ****
11413 HO1   -14.042429  -21.362980   -2.369373 H    1851 MOH     0.4215 ****
11414 HC1   -19.591919  -26.069674   -7.110524 H    1852 MOH     0.0372 ****
11415 C1    -19.246664  -26.912707   -7.708030 C    1852 MOH     0.1166 ****
11416 HC2   -18.506501  -27.444655   -7.109110 H    1852 MOH     0.0372 ****
11417 HC3   -18.804991  -26.526913   -8.626561 H    1852 MOH     0.0372 ****
11418 O1    -20.299174  -27.830449   -8.041784 O    1852 MOH    -0.6497 ****
11419 HO1   -20.020313  -28.343617   -8.803338 H    1852 MOH     0.4215 ****
11420 HC1    -6.093470  -28.932312  -15.672173 H    1853 MOH     0.0372 ****
11421 C1     -6.999333  -28.607754  -16.183411 C    1853 MOH     0.1166 ****
11422 HC2    -7.884988  -29.000489  -15.684194 H    1853 MOH     0.0372 ****
11423 HC3    -6.991827  -28.955990  -17.216494 H    1853 MOH     0.0372 ****
11424 O1     -7.092286  -27.215627  -16.169269 O    1853 MOH    -0.6497 ****
11425 HO1    -6.822086  -26.930262  -15.293164 H    1853 MOH     0.4215 ****
11426 HC1   -13.559186  -24.368504  -13.687325 H    1854 MOH     0.0372 ****
11427 C1    -12.895811  -25.190308  -13.417917 C    1854 MOH     0.1166 ****
11428 HC2   -11.879674  -24.804105  -13.340135 H    1854 MOH     0.0372 ****
11429 HC3   -12.909667  -25.972920  -14.176642 H    1854 MOH     0.0372 ****
11430 O1    -13.273975  -25.617335  -12.130982 O    1854 MOH    -0.6497 ****
11431 HO1   -13.220282  -24.848196  -11.559640 H    1854 MOH     0.4215 ****
11432 HC1   -16.410719  -20.673040  -15.421150 H    1855 MOH     0.0372 ****
11433 C1    -15.754272  -20.397473  -14.595957 C    1855 MOH     0.1166 ****
11434 HC2   -16.301023  -20.433399  -13.652676 H    1855 MOH     0.0372 ****
11435 HC3   -15.407862  -19.374811  -14.746571 H    1855 MOH     0.0372 ****
11436 O1    -14.635367  -21.269491  -14.530903 O    1855 MOH    -0.6497 ****
11437 HO1   -14.030304  -20.942892  -13.860566 H    1855 MOH     0.4215 ****
11438 HC1   -19.954495  -10.563996  -15.373067 H    1856 MOH     0.0372 ****
11439 C1    -20.862090  -10.184325  -15.842586 C    1856 MOH     0.1166 ****
11440 HC2   -20.731609  -10.204329  -16.925167 H    1856 MOH     0.0372 ****
11441 HC3   -21.005273   -9.153498  -15.520853 H    1856 MOH     0.0372 ****
11442 O1    -22.002357  -10.977552  -15.468527 O    1856 MOH    -0.6497 ****
11443 HO1   -22.775429  -10.472549  -15.730863 H    1856 MOH     0.4215 ****
11444 HC1   -20.302638  -23.600181  -11.189823 H    1857 MOH     0.0372 ****
11445 C1    -20.139825  -23.824309  -10.135527 C    1857 MOH     0.1166 ****
11446 HC2   -19.572290  -24.751032  -10.043603 H    1857 MOH     0.0372 ****
11447 HC3   -21.123630  -23.941884   -9.681565 H    1857 MOH     0.0372 ****
11448 O1    -19.447004  -22.747758   -9.543679 O    1857 MOH    -0.6497 ****
11449 HO1   -18.608692  -22.657127  -10.001884 H    1857 MOH     0.4215 ****
11450 HC1    -6.493574  -30.038256  -11.235078 H    1858 MOH     0.0372 ****
11451 C1     -6.109636  -29.441397  -12.062393 C    1858 MOH     0.1166 ****
11452 HC2    -5.422012  -30.058669  -12.640806 H    1858 MOH     0.0372 ****
11453 HC3    -5.608496  -28.579585  -11.620451 H    1858 MOH     0.0372 ****
11454 O1     -7.174847  -29.001714  -12.849403 O    1858 MOH    -0.6497 ****
11455 HO1    -7.704277  -29.757790  -13.111032 H    1858 MOH     0.4215 ****
11456 HC1   -16.027359  -21.042097   -6.634642 H    1859 MOH     0.0372 ****
11457 C1    -15.963850  -21.965146   -7.210934 C    1859 MOH     0.1166 ****
11458 HC2   -14.932125  -22.169270   -7.496605 H    1859 MOH     0.0372 ****
11459 HC3   -16.581038  -21.853286   -8.101888 H    1859 MOH     0.0372 ****
11460 O1    -16.481734  -23.018427   -6.445844 O    1859 MOH    -0.6497 ****
11461 HO1   -16.231741  -23.843088   -6.870108 H    1859 MOH     0.4215 ****
11462 HC1   -21.415191  -15.418477  -17.966028 H    1860 MOH     0.0372 ****
11463 C1    -20.543970  -16.073715  -17.985120 C    1860 MOH     0.1166 ****
11464 HC2   -20.544547  -16.645263  -18.912844 H    1860 MOH     0.0372 ****
11465 HC3   -20.571683  -16.782842  -17.157098 H    1860 MOH     0.0372 ****
11466 O1    -19.365598  -15.289062  -17.911581 O    1860 MOH    -0.6497 ****
11467 HO1   -19.395043  -14.778343  -17.099115 H    1860 MOH     0.4215 ****
11468 HC1    -6.601538  -24.581609  -12.499385 H    1861 MOH     0.0372 ****
11469 C1     -5.961257  -25.456894  -12.390491 C    1861 MOH     0.1166 ****
11470 HC2    -6.111368  -25.857794  -11.387813 H    1861 MOH     0.0372 ****
11471 HC3    -4.922604  -25.144176  -12.496557 H    1861 MOH     0.0372 ****
11472 O1     -6.340576  -26.398723  -13.393875 O    1861 MOH    -0.6497 ****
11473 HO1    -6.411590  -27.271966  -13.001431 H    1861 MOH     0.4215 ****
11474 HC1    -8.465802  -22.368087   -8.078553 H    1862 MOH     0.0372 ****
11475 C1     -7.607283  -22.006379   -8.644239 C    1862 MOH     0.1166 ****
11476 HC2    -7.955425  -21.487087   -9.536608 H    1862 MOH     0.0372 ****
11477 HC3    -6.977971  -22.846962   -8.937688 H    1862 MOH     0.0372 ****
11478 O1     -6.857882  -21.116806   -7.848744 O    1862 MOH    -0.6497 ****
11479 HO1    -6.690450  -21.535261   -7.000923 H    1862 MOH     0.4215 ****
11480 HC1    -7.666750  -21.046996  -18.010575 H    1863 MOH     0.0372 ****
11481 C1     -8.113619  -20.633032  -18.914258 C    1863 MOH     0.1166 ****
11482 HC2    -9.141302  -20.314190  -18.742431 H    1863 MOH     0.0372 ****
11483 HC3    -8.083019  -21.405438  -19.683590 H    1863 MOH     0.0372 ****
11484 O1     -7.303019  -19.568729  -19.302459 O    1863 MOH    -0.6497 ****
11485 HO1    -7.121154  -19.022493  -18.534541 H    1863 MOH     0.4215 ****
11486 HC1   -22.718848  -16.105967  -13.364177 H    1864 MOH     0.0372 ****
11487 C1    -23.089507  -16.502784  -12.419482 C    1864 MOH     0.1166 ****
11488 HC2   -22.235029  -16.625667  -11.754095 H    1864 MOH     0.0372 ****
11489 HC3   -23.561202  -17.478497  -12.535448 H    1864 MOH     0.0372 ****
11490 O1    -23.944563  -15.567487  -11.857332 O    1864 MOH    -0.6497 ****
11491 HO1   -23.759811  -15.565854  -10.915466 H    1864 MOH     0.4215 ****
11492 HC1   -23.430721  -20.780818   -7.626005 H    1865 MOH     0.0372 ****
11493 C1    -23.497117  -21.041280   -6.569588 C    1865 MOH     0.1166 ****
11494 HC2   -23.389152  -22.119464   -6.445844 H    1865 MOH     0.0372 ****
11495 HC3   -24.480922  -20.726521   -6.220984 H    1865 MOH     0.0372 ****
11496 O1    -22.513312  -20.322355   -5.846218 O    1865 MOH    -0.6497 ****
11497 HO1   -21.690588  -20.431357   -6.329171 H    1865 MOH     0.4215 ****
11498 HC1   -15.884176  -18.219876   -2.777374 H    1866 MOH     0.0372 ****
11499 C1    -15.446545  -19.123330   -3.202345 C    1866 MOH     0.1166 ****
11500 HC2   -15.202903  -18.928187   -4.246035 H    1866 MOH     0.0372 ****
11501 HC3   -16.152067  -19.949624   -3.109007 H    1866 MOH     0.0372 ****
11502 O1    -14.310319  -19.420943   -2.454933 O    1866 MOH    -0.6497 ****
11503 HO1   -13.682739  -18.695077   -2.503017 H    1866 MOH     0.4215 ****
11504 HC1   -19.104058  -25.417702   -3.410235 H    1867 MOH     0.0372 ****
11505 C1    -19.514555  -26.374228   -3.087087 C    1867 MOH     0.1166 ****
11506 HC2   -18.735709  -27.136835   -3.065874 H    1867 MOH     0.0372 ****
11507 HC3   -20.299751  -26.653061   -3.789244 H    1867 MOH     0.0372 ****
11508 O1    -20.110380  -26.229708   -1.831265 O    1867 MOH    -0.6497 ****
11509 HO1   -19.489728  -25.780635   -1.252852 H    1867 MOH     0.4215 ****
11510 HC1   -22.721158  -14.692203  -16.439384 H    1868 MOH     0.0372 ****
11511 C1    -22.154777  -14.387241  -15.559036 C    1868 MOH     0.1166 ****
11512 HC2   -21.769107  -15.280897  -15.067597 H    1868 MOH     0.0372 ****
11513 HC3   -22.808915  -13.863459  -14.862536 H    1868 MOH     0.0372 ****
11514 O1    -21.060121  -13.572786  -15.964208 O    1868 MOH    -0.6497 ****
11515 HO1   -21.411150  -12.697502  -16.140985 H    1868 MOH     0.4215 ****
11516 HC1   -13.903287  -20.433807   -6.579487 H    1869 MOH     0.0372 ****
11517 C1    -12.977795  -20.134153   -6.085927 C    1869 MOH     0.1166 ****
11518 HC2   -12.533812  -20.988208   -5.573981 H    1869 MOH     0.0372 ****
11519 HC3   -13.223746  -19.382159   -5.336393 H    1869 MOH     0.0372 ****
11520 O1    -12.095604  -19.634865   -7.111939 O    1869 MOH    -0.6497 ****
11521 HO1   -12.286129  -18.696710   -7.186892 H    1869 MOH     0.4215 ****
11522 HC1   -15.568365  -24.630599  -16.160784 H    1870 MOH     0.0372 ****
11523 C1    -14.786633  -23.957398  -16.512216 C    1870 MOH     0.1166 ****
11524 HC2   -14.227181  -24.392182  -17.340238 H    1870 MOH     0.0372 ****
11525 HC3   -14.101318  -23.752457  -15.690558 H    1870 MOH     0.0372 ****
11526 O1    -15.360519  -22.757964  -16.957693 O    1870 MOH    -0.6497 ****
11527 HO1   -15.165375  -22.114565  -16.271800 H    1870 MOH     0.4215 ****
11528 HC1    -4.060735  -11.191637   -7.291544 H    1871 MOH     0.0372 ****
11529 C1     -3.999536  -10.411883   -6.533525 C    1871 MOH     0.1166 ****
11530 HC2    -3.639270  -10.857690   -5.605801 H    1871 MOH     0.0372 ****
11531 HC3    -4.992579   -9.986488   -6.387861 H    1871 MOH     0.0372 ****
11532 O1     -3.128315   -9.389221   -6.961325 O    1871 MOH    -0.6497 ****
11533 HO1    -2.241505   -9.749296   -7.027793 H    1871 MOH     0.4215 ****
11534 HC1    -4.439477  -17.296174  -20.704652 H    1872 MOH     0.0372 ****
11535 C1     -4.626538  -18.282093  -20.279681 C    1872 MOH     0.1166 ****
11536 HC2    -5.018559  -18.187380  -19.267104 H    1872 MOH     0.0372 ****
11537 HC3    -3.669292  -18.798528  -20.211092 H    1872 MOH     0.0372 ****
11538 O1     -5.467738  -19.085934  -21.128916 O    1872 MOH    -0.6497 ****
11539 HO1    -6.183652  -19.432129  -20.591515 H    1872 MOH     0.4215 ****
11540 HC1    -1.809069  -16.824239  -14.067748 H    1873 MOH     0.0372 ****
11541 C1     -2.657774  -16.389454  -13.539539 C    1873 MOH     0.1166 ****
11542 HC2    -2.794029  -15.362302  -13.877536 H    1873 MOH     0.0372 ****
11543 HC3    -2.493229  -16.401702  -12.461908 H    1873 MOH     0.0372 ****
11544 O1     -3.823444  -17.087559  -13.873294 O    1873 MOH    -0.6497 ****
11545 HO1    -3.796309  -17.888134  -13.343671 H    1873 MOH     0.4215 ****
11546 HC1     6.267484   -8.053841  -17.687427 H    1874 MOH     0.0372 ****
11547 C1      6.072917   -7.312462  -16.912438 C    1874 MOH     0.1166 ****
11548 HC2     5.008860   -7.270412  -16.679800 H    1874 MOH     0.0372 ****
11549 HC3     6.374294   -6.324093  -17.259628 H    1874 MOH     0.0372 ****
11550 O1      6.742643   -7.642735  -15.701165 O    1874 MOH    -0.6497 ****
11551 HO1     6.524982   -8.537207  -15.428928 H    1874 MOH     0.4215 ****
11552 HC1    -2.914695   -9.748479  -23.681572 H    1875 MOH     0.0372 ****
11553 C1     -3.706819  -10.280835  -23.155484 C    1875 MOH     0.1166 ****
11554 HC2    -3.679684  -10.023231  -22.096945 H    1875 MOH     0.0372 ****
11555 HC3    -3.541120  -11.348404  -23.297613 H    1875 MOH     0.0372 ****
11556 O1     -4.935421   -9.865238  -23.711270 O    1875 MOH    -0.6497 ****
11557 HO1    -5.629973  -10.224089  -23.153363 H    1875 MOH     0.4215 ****
11558 HC1    -2.218410   -1.857448  -24.800922 H    1876 MOH     0.0372 ****
11559 C1     -1.680897   -1.514928  -25.685512 C    1876 MOH     0.1166 ****
11560 HC2    -2.008832   -2.088925  -26.552425 H    1876 MOH     0.0372 ****
11561 HC3    -0.621460   -1.699456  -25.507321 H    1876 MOH     0.0372 ****
11562 O1     -1.941282   -0.134232  -25.954213 O    1876 MOH    -0.6497 ****
11563 HO1    -1.682052    0.070708  -26.855067 H    1876 MOH     0.4215 ****
11564 HC1     1.150428   -3.689667  -16.158663 H    1877 MOH     0.0372 ****
11565 C1      1.198926   -4.777240  -16.209574 C    1877 MOH     0.1166 ****
11566 HC2     0.820761   -5.132008  -17.167704 H    1877 MOH     0.0372 ****
11567 HC3     0.592131   -5.223864  -15.421857 H    1877 MOH     0.0372 ****
11568 O1      2.535492   -5.211616  -16.136035 O    1877 MOH    -0.6497 ****
11569 HO1     2.503160   -6.171000  -16.114822 H    1877 MOH     0.4215 ****
11570 HC1    -7.759818   -4.714370  -21.732078 H    1878 MOH     0.0372 ****
11571 C1     -7.714208   -5.169158  -22.722028 C    1878 MOH     0.1166 ****
11572 HC2    -6.796798   -5.748054  -22.830922 H    1878 MOH     0.0372 ****
11573 HC3    -7.724600   -4.391445  -23.484996 H    1878 MOH     0.0372 ****
11574 O1     -8.817524   -6.005659  -22.939110 O    1878 MOH    -0.6497 ****
11575 HO1    -8.558294   -6.893191  -22.681723 H    1878 MOH     0.4215 ****
11576 HC1     0.347334   -9.271237  -23.236802 H    1879 MOH     0.0372 ****
11577 C1      0.545943   -8.310629  -22.762333 C    1879 MOH     0.1166 ****
11578 HC2     1.610577   -8.093441  -22.845772 H    1879 MOH     0.0372 ****
11579 HC3     0.316735   -8.345738  -21.697430 H    1879 MOH     0.0372 ****
11580 O1     -0.247337   -7.314911  -23.413578 O    1879 MOH    -0.6497 ****
11581 HO1    -0.199994   -6.538831  -22.850014 H    1879 MOH     0.4215 ****
11582 HC1   -14.077762  -10.558036  -14.791118 H    1880 MOH     0.0372 ****
11583 C1    -13.163240  -10.251850  -15.298821 C    1880 MOH     0.1166 ****
11584 HC2   -12.567991   -9.597428  -14.661718 H    1880 MOH     0.0372 ****
11585 HC3   -13.438636   -9.705613  -16.201089 H    1880 MOH     0.0372 ****
11586 O1    -12.461182  -11.391271  -15.696922 O    1880 MOH    -0.6497 ****
11587 HO1   -11.526452  -11.192454  -15.607119 H    1880 MOH     0.4215 ****
11588 HC1    -0.811408  -14.738498  -18.224829 H    1881 MOH     0.0372 ****
11589 C1     -0.764065  -14.015082  -17.410242 C    1881 MOH     0.1166 ****
11590 HC2    -1.557344  -13.287584  -17.581362 H    1881 MOH     0.0372 ****
11591 HC3     0.196646  -13.501506  -17.456911 H    1881 MOH     0.0372 ****
11592 O1     -0.949395  -14.656849  -16.116236 O    1881 MOH    -0.6497 ****
11593 HO1    -1.141075  -13.981198  -15.460748 H    1881 MOH     0.4215 ****
11594 HC1   -17.131945  -10.895657  -19.646821 H    1882 MOH     0.0372 ****
11595 C1    -17.089221  -10.653974  -18.584746 C    1882 MOH     0.1166 ****
11596 HC2   -16.052300  -10.716028  -18.253820 H    1882 MOH     0.0372 ****
11597 HC3   -17.686779  -11.355753  -18.002797 H    1882 MOH     0.0372 ****
11598 O1    -17.522811   -9.360235  -18.315339 O    1882 MOH    -0.6497 ****
11599 HO1   -18.292419   -9.168767  -18.856275 H    1882 MOH     0.4215 ****
11600 HC1   -19.735218   -6.958102  -11.931579 H    1883 MOH     0.0372 ****
11601 C1    -20.169962   -7.843593  -11.468424 C    1883 MOH     0.1166 ****
11602 HC2   -20.582191   -8.518427  -12.218664 H    1883 MOH     0.0372 ****
11603 HC3   -20.992109   -7.557411  -10.811521 H    1883 MOH     0.0372 ****
11604 O1    -19.264677   -8.546188  -10.672928 O    1883 MOH    -0.6497 ****
11605 HO1   -19.791221   -9.263889  -10.312304 H    1883 MOH     0.4215 ****
11606 HC1     5.946477   -6.024030  -13.905820 H    1884 MOH     0.0372 ****
11607 C1      6.029038   -5.084243  -13.359934 C    1884 MOH     0.1166 ****
11608 HC2     5.202272   -4.428596  -13.632877 H    1884 MOH     0.0372 ****
11609 HC3     6.986285   -4.622106  -13.604593 H    1884 MOH     0.0372 ****
11610 O1      5.988046   -5.442276  -12.018552 O    1884 MOH    -0.6497 ****
11611 HO1     6.212058   -4.699264  -11.454281 H    1884 MOH     0.4215 ****
11612 HC1    -6.146124   -1.399802  -14.162500 H    1885 MOH     0.0372 ****
11613 C1     -6.811809   -0.540847  -14.077648 C    1885 MOH     0.1166 ****
11614 HC2    -7.853927   -0.860914  -14.084719 H    1885 MOH     0.0372 ****
11615 HC3    -6.676709    0.083772  -14.960117 H    1885 MOH     0.0372 ****
11616 O1     -6.586065    0.256053  -12.874152 O    1885 MOH    -0.6497 ****
11617 HO1    -6.658811   -0.311004  -12.104113 H    1885 MOH     0.4215 ****
11618 HC1    -6.071646  -12.053857   -5.212650 H    1886 MOH     0.0372 ****
11619 C1     -5.772002  -13.101014   -5.227499 C    1886 MOH     0.1166 ****
11620 HC2    -5.138071  -13.289625   -6.094412 H    1886 MOH     0.0372 ****
11621 HC3    -6.639759  -13.755028   -5.306695 H    1886 MOH     0.0372 ****
11622 O1     -5.067057  -13.412099   -4.033903 O    1886 MOH    -0.6497 ****
11623 HO1    -4.632889  -14.260439   -4.152697 H    1886 MOH     0.4215 ****
11624 HC1   -13.822574   -8.786238  -19.260033 H    1887 MOH     0.0372 ****
11625 C1    -14.362973   -7.916669  -19.633386 C    1887 MOH     0.1166 ****
11626 HC2   -14.806378   -8.246126  -20.573130 H    1887 MOH     0.0372 ****
11627 HC3   -13.640131   -7.113645  -19.779757 H    1887 MOH     0.0372 ****
11628 O1    -15.354284   -7.578231  -18.639901 O    1887 MOH    -0.6497 ****
11629 HO1   -15.989946   -8.292258  -18.557169 H    1887 MOH     0.4215 ****
11630 HC1     0.734159  -17.401502  -17.620252 H    1888 MOH     0.0372 ****
11631 C1      0.054040  -17.970192  -16.985978 C    1888 MOH     0.1166 ****
11632 HC2     0.408533  -17.933041  -15.955723 H    1888 MOH     0.0372 ****
11633 HC3    -0.000808  -19.006734  -17.317611 H    1888 MOH     0.0372 ****
11634 O1     -1.178603  -17.347205  -17.068002 O    1888 MOH    -0.6497 ****
11635 HO1    -1.076412  -16.454366  -16.732126 H    1888 MOH     0.4215 ****
11636 HC1    -8.164541    5.767813   -8.305535 H    1889 MOH     0.0372 ****
11637 C1     -8.506332    5.098286   -9.094666 C    1889 MOH     0.1166 ****
11638 HC2    -9.004586    4.222185   -8.678887 H    1889 MOH     0.0372 ****
11639 HC3    -7.633956    4.780261   -9.665301 H    1889 MOH     0.0372 ****
11640 O1     -9.287487    5.828234  -10.016733 O    1889 MOH    -0.6497 ****
11641 HO1    -9.260352    5.341194  -10.843341 H    1889 MOH     0.4215 ****
11642 HC1    -5.397878  -10.938115  -12.636564 H    1890 MOH     0.0372 ****
11643 C1     -5.538175  -11.092433  -13.705709 C    1890 MOH     0.1166 ****
11644 HC2    -5.734474  -10.137948  -14.195027 H    1890 MOH     0.0372 ****
11645 HC3    -6.372446  -11.771350  -13.881779 H    1890 MOH     0.0372 ****
11646 O1     -4.362689  -11.646834  -14.257253 O    1890 MOH    -0.6497 ****
11647 HO1    -3.716057  -11.747671  -13.555096 H    1890 MOH     0.4215 ****
11648 HC1    -7.941684  -11.144280  -20.005324 H    1891 MOH     0.0372 ****
11649 C1     -8.102764  -12.157144  -19.636921 C    1891 MOH     0.1166 ****
11650 HC2    -8.853897  -12.112237  -18.849204 H    1891 MOH     0.0372 ****
11651 HC3    -7.177849  -12.557636  -19.221849 H    1891 MOH     0.0372 ****
11652 O1     -8.554252  -13.003851  -20.693339 O    1891 MOH    -0.6497 ****
11653 HO1    -8.149530  -13.861989  -20.543432 H    1891 MOH     0.4215 ****
11654 HC1     1.063826  -17.027138  -12.391198 H    1892 MOH     0.0372 ****
11655 C1      0.897549  -16.940181  -11.317102 C    1892 MOH     0.1166 ****
11656 HC2     0.969718  -15.884043  -11.057594 H    1892 MOH     0.0372 ****
11657 HC3     1.684477  -17.494174  -10.804450 H    1892 MOH     0.0372 ****
11658 O1     -0.428047  -17.459065  -11.083050 O    1892 MOH    -0.6497 ****
11659 HO1    -0.739239  -17.110421  -10.244422 H    1892 MOH     0.4215 ****
11660 HC1    -0.070090    0.369955   -3.210123 H    1893 MOH     0.0372 ****
11661 C1     -0.781386   -0.455932   -3.220730 C    1893 MOH     0.1166 ****
11662 HC2    -0.419387   -1.187104   -3.944100 H    1893 MOH     0.0372 ****
11663 HC3    -1.770387   -0.083609   -3.490845 H    1893 MOH     0.0372 ****
11664 O1     -0.844894   -1.029521   -1.935917 O    1893 MOH    -0.6497 ****
11665 HO1    -1.120868   -0.345705   -1.321441 H    1893 MOH     0.4215 ****
11666 HC1    -4.140410    1.899661  -20.218163 H    1894 MOH     0.0372 ****
11667 C1     -4.721224    2.280965  -19.378120 C    1894 MOH     0.1166 ****
11668 HC2    -4.423889    3.288113  -19.086085 H    1894 MOH     0.0372 ****
11669 HC3    -4.513378    1.625726  -18.531713 H    1894 MOH     0.0372 ****
11670 O1     -6.100514    2.237282  -19.663084 O    1894 MOH    -0.6497 ****
11671 HO1    -6.505814    1.562448  -19.113662 H    1894 MOH     0.4215 ****
11672 HC1     0.657371  -10.889125  -13.572773 H    1895 MOH     0.0372 ****
11673 C1      0.640628  -11.896274  -13.990673 C    1895 MOH     0.1166 ****
11674 HC2     1.142345  -12.554778  -13.282859 H    1895 MOH     0.0372 ****
11675 HC3     1.191998  -11.924851  -14.931125 H    1895 MOH     0.0372 ****
11676 O1     -0.702289  -12.331875  -14.139873 O    1895 MOH    -0.6497 ****
11677 HO1    -1.194191  -12.071004  -13.357106 H    1895 MOH     0.4215 ****
11678 HC1    -5.207930   -7.098131  -14.441100 H    1896 MOH     0.0372 ****
11679 C1     -6.271409   -6.897273  -14.572622 C    1896 MOH     0.1166 ****
11680 HC2    -6.853378   -7.818281  -14.545752 H    1896 MOH     0.0372 ****
11681 HC3    -6.436532   -6.426563  -15.542066 H    1896 MOH     0.0372 ****
11682 O1     -6.721743   -6.006884  -13.593279 O    1896 MOH    -0.6497 ****
11683 HO1    -6.611469   -5.112412  -13.923498 H    1896 MOH     0.4215 ****
11684 HC1    -1.494991   -4.170583  -17.237708 H    1897 MOH     0.0372 ****
11685 C1     -1.899136   -3.824797  -18.188766 C    1897 MOH     0.1166 ****
11686 HC2    -2.832134   -4.348171  -18.400898 H    1897 MOH     0.0372 ****
11687 HC3    -1.178025   -3.969725  -18.992747 H    1897 MOH     0.0372 ****
11688 O1     -2.145664   -2.458798  -18.034617 O    1897 MOH    -0.6497 ****
11689 HO1    -1.321208   -2.003193  -17.846527 H    1897 MOH     0.4215 ****
11690 HC1    -5.727545  -15.426397  -12.034109 H    1898 MOH     0.0372 ****
11691 C1     -5.913452  -14.840560  -12.934256 C    1898 MOH     0.1166 ****
11692 HC2    -5.895554  -15.464364  -13.828039 H    1898 MOH     0.0372 ****
11693 HC3    -5.165784  -14.055091  -13.043150 H    1898 MOH     0.0372 ****
11694 O1     -7.155910  -14.252275  -12.804855 O    1898 MOH    -0.6497 ****
11695 HO1    -7.454400  -14.141639  -13.710659 H    1898 MOH     0.4215 ****
11696 HC1    -4.542823  -11.851366  -10.614946 H    1899 MOH     0.0372 ****
11697 C1     -3.788803  -12.604993  -10.842634 C    1899 MOH     0.1166 ****
11698 HC2    -4.274932  -13.494566  -11.242149 H    1899 MOH     0.0372 ****
11699 HC3    -3.299788  -12.894441   -9.912788 H    1899 MOH     0.0372 ****
11700 O1     -2.854651  -12.062839  -11.787329 O    1899 MOH    -0.6497 ****
11701 HO1    -2.638144  -11.165101  -11.527820 H    1899 MOH     0.4215 ****
11702 HC1    -6.297390   -3.498606  -19.701268 H    1900 MOH     0.0372 ****
11703 C1     -6.534681   -3.785197  -18.675963 C    1900 MOH     0.1166 ****
11704 HC2    -5.772579   -4.447784  -18.266548 H    1900 MOH     0.0372 ****
11705 HC3    -7.487886   -4.313878  -18.695055 H    1900 MOH     0.0372 ****
11706 O1     -6.636295   -2.658840  -17.838041 O    1900 MOH    -0.6497 ****
11707 HO1    -5.862645   -2.102397  -17.957542 H    1900 MOH     0.4215 ****
11708 HC1    -9.200307  -14.075503  -11.126891 H    1901 MOH     0.0372 ****
11709 C1     -9.111973  -13.089583  -10.670807 C    1901 MOH     0.1166 ****
11710 HC2    -9.712994  -13.057740   -9.762882 H    1901 MOH     0.0372 ****
11711 HC3    -9.464156  -12.354328  -11.394177 H    1901 MOH     0.0372 ****
11712 O1     -7.771943  -12.885867  -10.363216 O    1901 MOH    -0.6497 ****
11713 HO1    -7.286969  -13.352495  -11.046988 H    1901 MOH     0.4215 ****
11714 HC1    -7.236739  -18.912837  -10.313011 H    1902 MOH     0.0372 ****
11715 C1     -6.160558  -18.904672  -10.482717 C    1902 MOH     0.1166 ****
11716 HC2    -5.740247  -18.044493   -9.962993 H    1902 MOH     0.0372 ****
11717 HC3    -5.956754  -18.844251  -11.551862 H    1902 MOH     0.0372 ****
11718 O1     -5.567042  -20.049400   -9.982085 O    1902 MOH    -0.6497 ****
11719 HO1    -6.028922  -20.310679   -9.183054 H    1902 MOH     0.4215 ****
11720 HC1   -10.590567   -4.244884  -17.714298 H    1903 MOH     0.0372 ****
11721 C1    -11.173113   -5.117719  -17.418727 C    1903 MOH     0.1166 ****
11722 HC2   -10.837095   -6.032603  -17.905924 H    1903 MOH     0.0372 ****
11723 HC3   -12.193291   -4.937682  -17.756017 H    1903 MOH     0.0372 ****
11724 O1    -11.180041   -5.264688  -16.015827 O    1903 MOH    -0.6497 ****
11725 HO1   -11.366526   -4.402876  -15.634697 H    1903 MOH     0.4215 ****
11726 HC1   -11.421374   -7.259390  -13.443373 H    1904 MOH     0.0372 ****
11727 C1    -10.389649   -7.543122  -13.649141 C    1904 MOH     0.1166 ****
11728 HC2   -10.118872   -8.369008  -12.992239 H    1904 MOH     0.0372 ****
11729 HC3    -9.741285   -6.692333  -13.438423 H    1904 MOH     0.0372 ****
11730 O1    -10.251662   -7.862372  -15.011028 O    1904 MOH    -0.6497 ****
11731 HO1   -10.548420   -7.069554  -15.463577 H    1904 MOH     0.4215 ****
11732 HC1    -5.927309   -7.986888  -19.129925 H    1905 MOH     0.0372 ****
11733 C1     -5.912875   -7.279394  -19.959362 C    1905 MOH     0.1166 ****
11734 HC2    -6.903608   -6.848284  -20.100783 H    1905 MOH     0.0372 ****
11735 HC3    -5.573970   -7.772558  -20.870115 H    1905 MOH     0.0372 ****
11736 O1     -5.035880   -6.227746  -19.652477 O    1905 MOH    -0.6497 ****
11737 HO1    -4.839581   -6.220806  -18.712732 H    1905 MOH     0.4215 ****
11738 HC1   -10.070952  -15.734216   -5.251541 H    1906 MOH     0.0372 ****
11739 C1     -9.078487  -15.713395   -5.701968 C    1906 MOH     0.1166 ****
11740 HC2    -8.555407  -14.802185   -5.412054 H    1906 MOH     0.0372 ****
11741 HC3    -9.138531  -15.768917   -6.788084 H    1906 MOH     0.0372 ****
11742 O1     -8.343520  -16.778107   -5.253662 O    1906 MOH    -0.6497 ****
11743 HO1    -8.790389  -17.574191   -5.549233 H    1906 MOH     0.4215 ****
11744 HC1   -14.724395  -11.443118  -21.345998 H    1907 MOH     0.0372 ****
11745 C1    -13.936312  -11.408825  -22.098360 C    1907 MOH     0.1166 ****
11746 HC2   -14.356623  -11.017315  -23.025377 H    1907 MOH     0.0372 ****
11747 HC3   -13.538517  -12.406584  -22.285036 H    1907 MOH     0.0372 ****
11748 O1    -12.929990  -10.508638  -21.748342 O    1907 MOH    -0.6497 ****
11749 HO1   -12.102647  -10.973633  -21.891885 H    1907 MOH     0.4215 ****
11750 HC1   -11.520678  -12.063655  -24.064117 H    1908 MOH     0.0372 ****
11751 C1    -11.090552  -12.633570  -23.239630 C    1908 MOH     0.1166 ****
11752 HC2   -10.315171  -13.277378  -23.654702 H    1908 MOH     0.0372 ****
11753 HC3   -11.835911  -13.282277  -22.779304 H    1908 MOH     0.0372 ****
11754 O1    -10.521285  -11.739098  -22.299885 O    1908 MOH    -0.6497 ****
11755 HO1   -10.106747  -12.278394  -21.623184 H    1908 MOH     0.4215 ****
11756 HC1    -1.173406   -3.348371  -21.778747 H    1909 MOH     0.0372 ****
11757 C1     -0.429779   -3.869296  -22.381202 C    1909 MOH     0.1166 ****
11758 HC2     0.485898   -3.279785  -22.429286 H    1909 MOH     0.0372 ****
11759 HC3    -0.765797   -3.990546  -23.411457 H    1909 MOH     0.0372 ****
11760 O1     -0.091452   -5.098123  -21.797132 O    1909 MOH    -0.6497 ****
11761 HO1    -0.795242   -5.369608  -21.203870 H    1909 MOH     0.4215 ****
11762 HC1    -0.457492   -9.025472  -17.118914 H    1910 MOH     0.0372 ****
11763 C1     -0.496752  -10.095082  -17.323975 C    1910 MOH     0.1166 ****
11764 HC2    -1.275020  -10.523335  -16.692528 H    1910 MOH     0.0372 ****
11765 HC3     0.472042  -10.531500  -17.080023 H    1910 MOH     0.0372 ****
11766 O1     -0.785427  -10.386980  -18.692226 O    1910 MOH    -0.6497 ****
11767 HO1    -0.355879  -11.201435  -18.964462 H    1910 MOH     0.4215 ****
11768 HC1     3.704049  -10.345338  -19.365392 H    1911 MOH     0.0372 ****
11769 C1      3.181547   -9.416165  -19.137704 C    1911 MOH     0.1166 ****
11770 HC2     2.149244   -9.629271  -18.859103 H    1911 MOH     0.0372 ****
11771 HC3     3.221961   -8.769908  -20.013809 H    1911 MOH     0.0372 ****
11772 O1      3.869171   -8.852783  -18.071386 O    1911 MOH    -0.6497 ****
11773 HO1     4.331628   -9.568034  -17.628738 H    1911 MOH     0.4215 ****
11774 HC1    -2.895642  -15.131233   -9.725405 H    1912 MOH     0.0372 ****
11775 C1     -2.644495  -15.651750   -8.801217 C    1912 MOH     0.1166 ****
11776 HC2    -3.311335  -16.505397   -8.680301 H    1912 MOH     0.0372 ****
11777 HC3    -2.767471  -14.981814   -7.950567 H    1912 MOH     0.0372 ****
11778 O1     -1.304465  -16.082452   -8.898090 O    1912 MOH    -0.6497 ****
11779 HO1    -1.114517  -16.638077   -8.139365 H    1912 MOH     0.4215 ****
11780 HC1    -1.422822   -8.200810  -19.746523 H    1913 MOH     0.0372 ****
11781 C1     -2.359861   -7.944838  -20.239376 C    1913 MOH     0.1166 ****
11782 HC2    -3.198174   -8.276744  -19.626314 H    1913 MOH     0.0372 ****
11783 HC3    -2.378336   -8.443718  -21.208112 H    1913 MOH     0.0372 ****
11784 O1     -2.390461   -6.561285  -20.456458 O    1913 MOH    -0.6497 ****
11785 HO1    -3.306716   -6.320010  -20.608486 H    1913 MOH     0.4215 ****
11786 HC1    -4.752401  -12.910771  -21.454185 H    1914 MOH     0.0372 ****
11787 C1     -4.446983  -13.890975  -21.821174 C    1914 MOH     0.1166 ****
11788 HC2    -3.497819  -13.811366  -22.350797 H    1914 MOH     0.0372 ****
11789 HC3    -5.213704  -14.283301  -22.487975 H    1914 MOH     0.0372 ****
11790 O1     -4.293407  -14.811575  -20.747079 O    1914 MOH    -0.6497 ****
11791 HO1    -3.444125  -15.245543  -20.855266 H    1914 MOH     0.4215 ****
11792 HC1     1.088652  -15.559077  -14.781219 H    1915 MOH     0.0372 ****
11793 C1      1.959873  -15.055707  -15.200533 C    1915 MOH     0.1166 ****
11794 HC2     1.661961  -14.106530  -15.643889 H    1915 MOH     0.0372 ****
11795 HC3     2.398660  -15.667263  -15.989664 H    1915 MOH     0.0372 ****
11796 O1      2.928667  -14.780548  -14.214826 O    1915 MOH    -0.6497 ****
11797 HO1     3.358793  -15.618682  -14.031685 H    1915 MOH     0.4215 ****
11798 HC1    -8.939345   -6.229379   -5.820055 H    1916 MOH     0.0372 ****
11799 C1     -8.331395   -5.358585   -6.068249 C    1916 MOH     0.1166 ****
11800 HC2    -7.281772   -5.628029   -6.182800 H    1916 MOH     0.0372 ****
11801 HC3    -8.387976   -4.636394   -5.252955 H    1916 MOH     0.0372 ****
11802 O1     -8.726303   -4.796428   -7.278109 O    1916 MOH    -0.6497 ****
11803 HO1    -8.444556   -5.394920   -7.973902 H    1916 MOH     0.4215 ****
11804 HC1    -7.466524   -9.235311  -26.529091 H    1917 MOH     0.0372 ****
11805 C1     -6.542764   -9.047109  -27.077099 C    1917 MOH     0.1166 ****
11806 HC2    -5.952135   -9.961993  -27.039622 H    1917 MOH     0.0372 ****
11807 HC3    -6.020262   -8.223672  -26.589902 H    1917 MOH     0.0372 ****
11808 O1     -6.815851   -8.694791  -28.431208 O    1917 MOH    -0.6497 ****
11809 HO1    -6.034118   -8.272662  -28.794661 H    1917 MOH     0.4215 ****
11810 HC1    -3.358677    0.020494  -16.507974 H    1918 MOH     0.0372 ****
11811 C1     -4.373659   -0.362851  -16.611918 C    1918 MOH     0.1166 ****
11812 HC2    -5.094770    0.454462  -16.590705 H    1918 MOH     0.0372 ****
11813 HC3    -4.608641   -1.057690  -15.805816 H    1918 MOH     0.0372 ****
11814 O1     -4.501253   -1.074836  -17.794201 O    1918 MOH    -0.6497 ****
11815 HO1    -3.780720   -1.708029  -17.826021 H    1918 MOH     0.4215 ****
11816 HC1    -9.879849  -13.973441  -15.618433 H    1919 MOH     0.0372 ****
11817 C1     -9.023061  -14.231454  -16.242101 C    1919 MOH     0.1166 ****
11818 HC2    -8.837154  -13.438227  -16.965472 H    1919 MOH     0.0372 ****
11819 HC3    -9.269012  -15.135316  -16.799301 H    1919 MOH     0.0372 ****
11820 O1     -7.859700  -14.422106  -15.440949 O    1919 MOH    -0.6497 ****
11821 HO1    -7.163416  -14.769933  -16.002392 H    1919 MOH     0.4215 ****
11822 HC1    -3.825176  -14.313512  -16.435141 H    1920 MOH     0.0372 ****
11823 C1     -4.323430  -15.089184  -17.014969 C    1920 MOH     0.1166 ****
11824 HC2    -3.596546  -15.834645  -17.337410 H    1920 MOH     0.0372 ****
11825 HC3    -4.785887  -14.615207  -17.881175 H    1920 MOH     0.0372 ****
11826 O1     -5.298574  -15.719927  -16.218060 O    1920 MOH    -0.6497 ****
11827 HO1    -4.826879  -16.088984  -15.468526 H    1920 MOH     0.4215 ****
11828 HC1    -4.500676   -2.614749  -20.728694 H    1921 MOH     0.0372 ****
11829 C1     -3.907737   -2.953187  -21.577929 C    1921 MOH     0.1166 ****
11830 HC2    -3.540543   -3.948904  -21.329735 H    1921 MOH     0.0372 ****
11831 HC3    -3.060765   -2.283251  -21.729957 H    1921 MOH     0.0372 ****
11832 O1     -4.711986   -3.004218  -22.748191 O    1921 MOH    -0.6497 ****
11833 HO1    -4.304954   -3.654557  -23.325897 H    1921 MOH     0.4215 ****
11834 HC1    -8.744201   -2.293866  -15.066183 H    1922 MOH     0.0372 ****
11835 C1     -8.562913   -3.332041  -14.786876 C    1922 MOH     0.1166 ****
11836 HC2    -9.222247   -3.969317  -15.375896 H    1922 MOH     0.0372 ****
11837 HC3    -8.787502   -3.486767  -13.731165 H    1922 MOH     0.0372 ****
11838 O1     -7.232698   -3.727634  -15.027999 O    1922 MOH    -0.6497 ****
11839 HO1    -7.053142   -3.619448  -15.964916 H    1922 MOH     0.4215 ****
11840 HC1    -4.855747   -8.082010  -11.407612 H    1923 MOH     0.0372 ****
11841 C1     -4.401949   -7.202643  -10.950821 C    1923 MOH     0.1166 ****
11842 HC2    -3.564791   -6.885842  -11.573075 H    1923 MOH     0.0372 ****
11843 HC3    -4.098263   -7.451674   -9.934002 H    1923 MOH     0.0372 ****
11844 O1     -5.352268   -6.204884  -10.986177 O    1923 MOH    -0.6497 ****
11845 HO1    -5.680203   -6.149362  -11.887031 H    1923 MOH     0.4215 ****
11846 HC1    -1.233451  -12.022422   -9.564892 H    1924 MOH     0.0372 ****
11847 C1     -0.410727  -12.713178   -9.750154 C    1924 MOH     0.1166 ****
11848 HC2    -0.135331  -12.591929  -10.797379 H    1924 MOH     0.0372 ****
11849 HC3    -0.719032  -13.752987   -9.643381 H    1924 MOH     0.0372 ****
11850 O1      0.679310  -12.402501   -8.865563 O    1924 MOH    -0.6497 ****
11851 HO1     1.290147  -13.143064   -8.852835 H    1924 MOH     0.4215 ****
11852 HC1    -5.486213  -10.680918  -18.760109 H    1925 MOH     0.0372 ****
11853 C1     -4.558988  -10.857690  -18.216343 C    1925 MOH     0.1166 ****
11854 HC2    -4.624806  -11.782372  -17.642880 H    1925 MOH     0.0372 ****
11855 HC3    -4.335554  -10.021189  -17.553784 H    1925 MOH     0.0372 ****
11856 O1     -3.555554  -10.959752  -19.146896 O    1925 MOH    -0.6497 ****
11857 HO1    -2.745531  -10.618865  -18.760109 H    1925 MOH     0.4215 ****
11858 HC1    -7.583149  -10.536807  -24.033004 H    1926 MOH     0.0372 ****
11859 C1     -7.303134  -11.445159  -23.499138 C    1926 MOH     0.1166 ****
11860 HC2    -6.494844  -11.940773  -24.036539 H    1926 MOH     0.0372 ****
11861 HC3    -8.133941  -12.151021  -23.475804 H    1926 MOH     0.0372 ****
11862 O1     -6.865503  -11.183880  -22.179677 O    1926 MOH    -0.6497 ****
11863 HO1    -7.213068  -11.888517  -21.628134 H    1926 MOH     0.4215 ****
11864 HC1     3.600703  -11.064672  -10.629795 H    1927 MOH     0.0372 ****
11865 C1      2.769318  -10.381264  -10.799500 C    1927 MOH     0.1166 ****
11866 HC2     1.847290  -10.841360  -10.442411 H    1927 MOH     0.0372 ****
11867 HC3     2.698882  -10.193062  -11.870767 H    1927 MOH     0.0372 ****
11868 O1      3.097253   -9.160602  -10.147548 O    1927 MOH    -0.6497 ****
11869 HO1     3.710399   -9.357786   -9.435491 H    1927 MOH     0.4215 ****
11870 HC1     3.360525   -8.238369  -14.607270 H    1928 MOH     0.0372 ****
11871 C1      2.350739   -8.559252  -14.863243 C    1928 MOH     0.1166 ****
11872 HC2     1.653300   -8.128550  -14.144115 H    1928 MOH     0.0372 ****
11873 HC3     2.269333   -9.645601  -14.828595 H    1928 MOH     0.0372 ****
11874 O1      1.995669   -8.099973  -16.135328 O    1928 MOH    -0.6497 ****
11875 HO1     2.594381   -8.507405  -16.764653 H    1928 MOH     0.4215 ****
11876 HC1    -3.149099  -21.024297  -12.192501 H    1929 MOH     0.0372 ****
11877 C1     -2.567707  -20.266997  -11.665706 C    1929 MOH     0.1166 ****
11878 HC2    -1.514043  -20.511129  -11.802885 H    1929 MOH     0.0372 ****
11879 HC3    -2.797493  -20.256382  -10.600803 H    1929 MOH     0.0372 ****
11880 O1     -2.695879  -19.006734  -12.217957 O    1929 MOH    -0.6497 ****
11881 HO1    -1.897404  -18.530308  -11.976833 H    1929 MOH     0.4215 ****
11882 HC1    -7.993645   -9.667238   -7.110524 H    1930 MOH     0.0372 ****
11883 C1     -7.648390  -10.510271   -7.708030 C    1930 MOH     0.1166 ****
11884 HC2    -6.908227  -11.042218   -7.109110 H    1930 MOH     0.0372 ****
11885 HC3    -7.206717  -10.124476   -8.626561 H    1930 MOH     0.0372 ****
11886 O1     -8.700899  -11.428013   -8.041784 O    1930 MOH    -0.6497 ****
11887 HO1    -8.422039  -11.941181   -8.803338 H    1930 MOH     0.4215 ****
11888 HC1    -2.928551  -21.346813  -16.855163 H    1931 MOH     0.0372 ****
11889 C1     -2.961460  -20.261689  -16.954158 C    1931 MOH     0.1166 ****
11890 HC2    -2.516323  -19.792612  -16.076638 H    1931 MOH     0.0372 ****
11891 HC3    -3.998959  -19.935907  -17.029111 H    1931 MOH     0.0372 ****
11892 O1     -2.275568  -19.884468  -18.119470 O    1931 MOH    -0.6497 ****
11893 HO1    -2.173955  -18.931208  -18.079165 H    1931 MOH     0.4215 ****
11894 HC1     5.504804  -12.529875  -15.672173 H    1932 MOH     0.0372 ****
11895 C1      4.598941  -12.205318  -16.183411 C    1932 MOH     0.1166 ****
11896 HC2     3.713286  -12.598052  -15.684194 H    1932 MOH     0.0372 ****
11897 HC3     4.606447  -12.553553  -17.216494 H    1932 MOH     0.0372 ****
11898 O1      4.505988  -10.813191  -16.169269 O    1932 MOH    -0.6497 ****
11899 HO1     4.776188  -10.527825  -15.293164 H    1932 MOH     0.4215 ****
11900 HC1    -1.960912   -7.966067  -13.687325 H    1933 MOH     0.0372 ****
11901 C1     -1.297537   -8.787871  -13.417917 C    1933 MOH     0.1166 ****
11902 HC2    -0.281400   -8.401668  -13.340135 H    1933 MOH     0.0372 ****
11903 HC3    -1.311393   -9.570483  -14.176642 H    1933 MOH     0.0372 ****
11904 O1     -1.675701   -9.214899  -12.130982 O    1933 MOH    -0.6497 ****
11905 HO1    -1.622008   -8.445759  -11.559640 H    1933 MOH     0.4215 ****
11906 HC1    -7.474607   -9.003018  -18.564947 H    1934 MOH     0.0372 ****
11907 C1     -8.105074   -9.316553  -17.733390 C    1934 MOH     0.1166 ****
11908 HC2    -9.081373   -9.629271  -18.103914 H    1934 MOH     0.0372 ****
11909 HC3    -8.275392   -8.489442  -17.043253 H    1934 MOH     0.0372 ****
11910 O1     -7.502898  -10.370650  -17.037596 O    1934 MOH    -0.6497 ****
11911 HO1    -8.153571  -10.725009  -16.428070 H    1934 MOH     0.4215 ****
11912 HC1    -4.812445   -4.270604  -15.421150 H    1935 MOH     0.0372 ****
11913 C1     -4.155998   -3.995036  -14.595957 C    1935 MOH     0.1166 ****
11914 HC2    -4.702749   -4.030962  -13.652676 H    1935 MOH     0.0372 ****
11915 HC3    -3.809588   -2.972374  -14.746571 H    1935 MOH     0.0372 ****
11916 O1     -3.037093   -4.867055  -14.530903 O    1935 MOH    -0.6497 ****
11917 HO1    -2.432030   -4.540456  -13.860566 H    1935 MOH     0.4215 ****
11918 HC1   -15.474373  -14.338415  -15.368117 H    1936 MOH     0.0372 ****
11919 C1    -14.830627  -13.554170  -15.764804 C    1936 MOH     0.1166 ****
11920 HC2   -14.796563  -12.752779  -15.027292 H    1936 MOH     0.0372 ****
11921 HC3   -15.229576  -13.114078  -16.679800 H    1936 MOH     0.0372 ****
11922 O1    -13.518887  -14.018757  -15.995321 O    1936 MOH    -0.6497 ****
11923 HO1   -13.076637  -13.231654  -16.320590 H    1936 MOH     0.4215 ****
11924 HC1    -8.704363   -7.197744  -11.189823 H    1937 MOH     0.0372 ****
11925 C1     -8.541551   -7.421872  -10.135527 C    1937 MOH     0.1166 ****
11926 HC2    -7.974015   -8.348596  -10.043603 H    1937 MOH     0.0372 ****
11927 HC3    -9.525356   -7.539448   -9.681565 H    1937 MOH     0.0372 ****
11928 O1     -7.848730   -6.345322   -9.543679 O    1937 MOH    -0.6497 ****
11929 HO1    -7.010418   -6.254690  -10.001884 H    1937 MOH     0.4215 ****
11930 HC1   -10.768968  -13.263905   -6.430288 H    1938 MOH     0.0372 ****
11931 C1    -11.162144  -12.829121   -5.511756 C    1938 MOH     0.1166 ****
11932 HC2   -11.346318  -11.764409   -5.653177 H    1938 MOH     0.0372 ****
11933 HC3   -10.462972  -12.973233   -4.687977 H    1938 MOH     0.0372 ****
11934 O1    -12.326659  -13.490075   -5.182951 O    1938 MOH    -0.6497 ****
11935 HO1   -12.751012  -13.040594   -4.448267 H    1938 MOH     0.4215 ****
11936 HC1    -8.982069   -7.302664  -20.525754 H    1939 MOH     0.0372 ****
11937 C1     -9.115437   -8.325326  -20.878601 C    1939 MOH     0.1166 ****
11938 HC2   -10.114253   -8.402893  -21.307107 H    1939 MOH     0.0372 ****
11939 HC3    -9.042113   -9.042210  -20.061185 H    1939 MOH     0.0372 ****
11940 O1     -8.195140   -8.602526  -21.890470 O    1939 MOH    -0.6497 ****
11941 HO1    -8.079093   -9.550479  -21.982394 H    1939 MOH     0.4215 ****
11942 HC1    -6.795066  -16.577249  -21.568030 H    1940 MOH     0.0372 ****
11943 C1     -7.531765  -16.231462  -20.843245 C    1940 MOH     0.1166 ****
11944 HC2    -7.802542  -17.039386  -20.162301 H    1940 MOH     0.0372 ****
11945 HC3    -8.440514  -15.931808  -21.363676 H    1940 MOH     0.0372 ****
11946 O1     -7.091824  -15.150013  -20.049164 O    1940 MOH    -0.6497 ****
11947 HO1    -6.144392  -15.218598  -19.913400 H    1940 MOH     0.4215 ****
11948 HC1    -5.846480   -0.021964  -21.215890 H    1941 MOH     0.0372 ****
11949 C1     -6.694030   -0.686592  -21.046185 C    1941 MOH     0.1166 ****
11950 HC2    -7.559478   -0.042785  -20.889914 H    1941 MOH     0.0372 ****
11951 HC3    -6.461358   -1.288350  -20.167958 H    1941 MOH     0.0372 ****
11952 O1     -6.827398   -1.388371  -22.261701 O    1941 MOH    -0.6497 ****
11953 HO1    -5.981580   -1.794170  -22.466762 H    1941 MOH     0.4215 ****
11954 HC1    -7.957850  -18.827921  -15.805816 H    1942 MOH     0.0372 ****
11955 C1     -6.922661  -18.523776  -15.962087 C    1942 MOH     0.1166 ****
11956 HC2    -6.333763  -19.426413  -16.129671 H    1942 MOH     0.0372 ****
11957 HC3    -6.549692  -17.966926  -15.103659 H    1942 MOH     0.0372 ****
11958 O1     -6.924970  -17.792195  -17.138713 O    1942 MOH    -0.6497 ****
11959 HO1    -6.287575  -17.083068  -17.029111 H    1942 MOH     0.4215 ****
11960 HC1     5.104700  -13.635820  -11.235078 H    1943 MOH     0.0372 ****
11961 C1      5.488638  -13.038961  -12.062393 C    1943 MOH     0.1166 ****
11962 HC2     6.176262  -13.656232  -12.640806 H    1943 MOH     0.0372 ****
11963 HC3     5.989778  -12.177148  -11.620451 H    1943 MOH     0.0372 ****
11964 O1      4.423427  -12.599277  -12.849403 O    1943 MOH    -0.6497 ****
11965 HO1     3.893997  -13.355353  -13.111032 H    1943 MOH     0.4215 ****
11966 HC1   -16.480117   -5.332049  -15.117095 H    1944 MOH     0.0372 ****
11967 C1    -16.646394   -4.261622  -14.998301 C    1944 MOH     0.1166 ****
11968 HC2   -16.293055   -3.940739  -14.018251 H    1944 MOH     0.0372 ****
11969 HC3   -17.713337   -4.048517  -15.070426 H    1944 MOH     0.0372 ****
11970 O1    -15.959347   -3.547188  -16.008049 O    1944 MOH    -0.6497 ****
11971 HO1   -16.049991   -4.077094  -16.802837 H    1944 MOH     0.4215 ****
11972 HC1     4.996736   -8.179173  -12.499385 H    1945 MOH     0.0372 ****
11973 C1      5.637017   -9.054457  -12.390491 C    1945 MOH     0.1166 ****
11974 HC2     5.486906   -9.455357  -11.387813 H    1945 MOH     0.0372 ****
11975 HC3     6.675670   -8.741739  -12.496557 H    1945 MOH     0.0372 ****
11976 O1      5.257698   -9.996286  -13.393875 O    1945 MOH    -0.6497 ****
11977 HO1     5.186684  -10.869529  -13.001431 H    1945 MOH     0.4215 ****
11978 HC1     3.931525   -4.644559  -18.010575 H    1946 MOH     0.0372 ****
11979 C1      3.484655   -4.230596  -18.914258 C    1946 MOH     0.1166 ****
11980 HC2     2.456972   -3.911754  -18.742431 H    1946 MOH     0.0372 ****
11981 HC3     3.515255   -5.003001  -19.683590 H    1946 MOH     0.0372 ****
11982 O1      4.295255   -3.166292  -19.302459 O    1946 MOH    -0.6497 ****
11983 HO1     4.477121   -2.620056  -18.534541 H    1946 MOH     0.4215 ****
11984 HC1    -2.842526   -6.896865  -23.416407 H    1947 MOH     0.0372 ****
11985 C1     -3.766864   -6.381656  -23.678036 C    1947 MOH     0.1166 ****
11986 HC2    -4.479891   -6.428604  -22.854257 H    1947 MOH     0.0372 ****
11987 HC3    -4.202763   -6.827871  -24.571112 H    1947 MOH     0.0372 ****
11988 O1     -3.528996   -5.032395  -23.957343 O    1947 MOH    -0.6497 ****
11989 HO1    -3.024391   -5.002185  -24.773345 H    1947 MOH     0.4215 ****
11990 HC1   -12.583002  -17.116545  -22.876884 H    1948 MOH     0.0372 ****
11991 C1    -12.069161  -16.807501  -21.966838 C    1948 MOH     0.1166 ****
11992 HC2   -10.986052  -16.833629  -22.082803 H    1948 MOH     0.0372 ****
11993 HC3   -12.372270  -17.446817  -21.136694 H    1948 MOH     0.0372 ****
11994 O1    -12.508524  -15.550096  -21.683995 O    1948 MOH    -0.6497 ****
11995 HO1   -12.840501  -15.187980  -22.509189 H    1948 MOH     0.4215 ****
11996 HC1    -4.285902   -1.817440   -2.777374 H    1949 MOH     0.0372 ****
11997 C1     -3.848270   -2.720893   -3.202345 C    1949 MOH     0.1166 ****
11998 HC2    -3.604629   -2.525751   -4.246035 H    1949 MOH     0.0372 ****
11999 HC3    -4.553792   -3.547188   -3.109007 H    1949 MOH     0.0372 ****
12000 O1     -2.712045   -3.018506   -2.454933 O    1949 MOH    -0.6497 ****
12001 HO1    -2.084465   -2.292641   -2.503017 H    1949 MOH     0.4215 ****
12002 HC1   -19.206365   -7.694582  -17.042546 H    1950 MOH     0.0372 ****
12003 C1    -18.647490   -7.062206  -16.353117 C    1950 MOH     0.1166 ****
12004 HC2   -18.602456   -6.061589  -16.783745 H    1950 MOH     0.0372 ****
12005 HC3   -17.634240   -7.456573  -16.272507 H    1950 MOH     0.0372 ****
12006 O1    -19.312597   -7.049958  -15.064769 O    1950 MOH    -0.6497 ****
12007 HO1   -18.845521   -7.668046  -14.499083 H    1950 MOH     0.4215 ****
12008 HC1   -10.731440  -13.907713  -19.143360 H    1951 MOH     0.0372 ****
12009 C1    -11.613631  -13.324326  -18.882438 C    1951 MOH     0.1166 ****
12010 HC2   -11.309368  -12.325751  -18.571311 H    1951 MOH     0.0372 ****
12011 HC3   -12.148835  -13.814224  -18.069265 H    1951 MOH     0.0372 ****
12012 O1    -12.434623  -13.269213  -20.049871 O    1951 MOH    -0.6497 ****
12013 HO1   -12.525267  -14.157969  -20.402718 H    1951 MOH     0.4215 ****
12014 HC1    -3.194710  -22.900198  -13.692274 H    1952 MOH     0.0372 ****
12015 C1     -2.356975  -22.671987  -14.352005 C    1952 MOH     0.1166 ****
12016 HC2    -1.999595  -21.670554  -14.116538 H    1952 MOH     0.0372 ****
12017 HC3    -2.707426  -22.716895  -15.382966 H    1952 MOH     0.0372 ****
12018 O1     -1.276175  -23.613816  -14.147651 O    1952 MOH    -0.6497 ****
12019 HO1    -0.443058  -23.225572  -14.425544 H    1952 MOH     0.4215 ****
12020 HC1    -9.001122  -12.044876  -14.076940 H    1953 MOH     0.0372 ****
12021 C1     -9.312891  -11.001393  -14.112296 C    1953 MOH     0.1166 ****
12022 HC2    -8.506910  -10.344114  -13.784198 H    1953 MOH     0.0372 ****
12023 HC3   -10.155822  -10.878102  -13.433473 H    1953 MOH     0.0372 ****
12024 O1     -9.766111  -10.655199  -15.406301 O    1953 MOH    -0.6497 ****
12025 HO1    -9.977421   -9.719494  -15.376603 H    1953 MOH     0.4215 ****
12026 HC1    -3.970091   -8.228163  -16.160784 H    1954 MOH     0.0372 ****
12027 C1     -3.188359   -7.554961  -16.512216 C    1954 MOH     0.1166 ****
12028 HC2    -2.628907   -7.989746  -17.340238 H    1954 MOH     0.0372 ****
12029 HC3    -2.503044   -7.350021  -15.690558 H    1954 MOH     0.0372 ****
12030 O1     -3.762245   -6.355528  -16.957693 O    1954 MOH    -0.6497 ****
12031 HO1    -3.567101   -5.712129  -16.271800 H    1954 MOH     0.4215 ****
12032 HC1     0.929765   14.512737  -15.889255 H    1955 MOH     0.0372 ****
12033 C1     -0.106579   14.651541  -15.582371 C    1955 MOH     0.1166 ****
12034 HC2    -0.670073   15.015699  -16.440798 H    1955 MOH     0.0372 ****
12035 HC3    -0.176438   15.401493  -14.793947 H    1955 MOH     0.0372 ****
12036 O1     -0.631967   13.408833  -15.165178 O    1955 MOH    -0.6497 ****
12037 HO1    -1.394647   13.561110  -14.603028 H    1955 MOH     0.4215 ****
12038 HC1    -4.571806    3.971766  -11.797935 H    1956 MOH     0.0372 ****
12039 C1     -5.372591    3.577806  -11.172146 C    1956 MOH     0.1166 ****
12040 HC2    -5.938394    2.847450  -11.751266 H    1956 MOH     0.0372 ****
12041 HC3    -6.045204    4.354703  -10.810814 H    1956 MOH     0.0372 ****
12042 O1     -4.875492    2.836836  -10.127749 O    1956 MOH    -0.6497 ****
12043 HO1    -4.331051    3.432878   -9.608733 H    1956 MOH     0.4215 ****
12044 HC1     7.537539    5.210799   -7.291544 H    1957 MOH     0.0372 ****
12045 C1      7.598738    5.990554   -6.533525 C    1957 MOH     0.1166 ****
12046 HC2     7.959004    5.544747   -5.605801 H    1957 MOH     0.0372 ****
12047 HC3     6.605695    6.415948   -6.387861 H    1957 MOH     0.0372 ****
12048 O1      8.469959    7.013216   -6.961325 O    1957 MOH    -0.6497 ****
12049 HO1     9.356769    6.653141   -7.027793 H    1957 MOH     0.4215 ****
12050 HC1    13.796016    9.959952  -13.072142 H    1958 MOH     0.0372 ****
12051 C1     14.229606   10.153053  -12.091384 C    1958 MOH     0.1166 ****
12052 HC2    14.515394   11.203884  -12.040473 H    1958 MOH     0.0372 ****
12053 HC3    15.117571    9.533741  -11.964812 H    1958 MOH     0.0372 ****
12054 O1     13.275246    9.838294  -11.083757 O    1958 MOH    -0.6497 ****
12055 HO1    13.476164    8.946680  -10.791015 H    1958 MOH     0.4215 ****
12056 HC1    17.865758    8.348596  -17.687427 H    1959 MOH     0.0372 ****
12057 C1     17.671191    9.089975  -16.912438 C    1959 MOH     0.1166 ****
12058 HC2    16.607134    9.132024  -16.679800 H    1959 MOH     0.0372 ****
12059 HC3    17.972568   10.078344  -17.259628 H    1959 MOH     0.0372 ****
12060 O1     18.340917    8.759702  -15.701165 O    1959 MOH    -0.6497 ****
12061 HO1    18.123256    7.865230  -15.428928 H    1959 MOH     0.4215 ****
12062 HC1     1.979388   13.061414  -11.220229 H    1960 MOH     0.0372 ****
12063 C1      2.583296   13.612958  -10.499687 C    1960 MOH     0.1166 ****
12064 HC2     3.395051   12.977723  -10.146134 H    1960 MOH     0.0372 ****
12065 HC3     1.934932   13.898731   -9.670958 H    1960 MOH     0.0372 ****
12066 O1      3.087900   14.736865  -11.155175 O    1960 MOH    -0.6497 ****
12067 HO1     3.900809   14.998552  -10.716062 H    1960 MOH     0.4215 ****
12068 HC1     8.683579    6.653957  -23.681572 H    1961 MOH     0.0372 ****
12069 C1      7.891455    6.121601  -23.155484 C    1961 MOH     0.1166 ****
12070 HC2     7.918590    6.379206  -22.096945 H    1961 MOH     0.0372 ****
12071 HC3     8.057154    5.054032  -23.297613 H    1961 MOH     0.0372 ****
12072 O1      6.662853    6.537198  -23.711270 O    1961 MOH    -0.6497 ****
12073 HO1     5.968301    6.178348  -23.153363 H    1961 MOH     0.4215 ****
12074 HC1     0.041223    7.739898   -6.835460 H    1962 MOH     0.0372 ****
12075 C1     -0.978955    7.447184   -6.587265 C    1962 MOH     0.1166 ****
12076 HC2    -1.140036    7.504747   -5.511756 H    1962 MOH     0.0372 ****
12077 HC3    -1.187378    6.424930   -6.904049 H    1962 MOH     0.0372 ****
12078 O1     -1.865188    8.339614   -7.188306 O    1962 MOH    -0.6497 ****
12079 HO1    -1.413700    8.716019   -7.947739 H    1962 MOH     0.4215 ****
12080 HC1    12.748702   12.712770  -16.158663 H    1963 MOH     0.0372 ****
12081 C1     12.797200   11.625197  -16.209574 C    1963 MOH     0.1166 ****
12082 HC2    12.419035   11.270429  -17.167704 H    1963 MOH     0.0372 ****
12083 HC3    12.190405   11.178573  -15.421857 H    1963 MOH     0.0372 ****
12084 O1     14.133766   11.190820  -16.136035 O    1963 MOH    -0.6497 ****
12085 HO1    14.101434   10.231437  -16.114822 H    1963 MOH     0.4215 ****
12086 HC1     3.838456   11.688067  -21.732078 H    1964 MOH     0.0372 ****
12087 C1      3.884066   11.233278  -22.722028 C    1964 MOH     0.1166 ****
12088 HC2     4.801476   10.654382  -22.830922 H    1964 MOH     0.0372 ****
12089 HC3     3.873674   12.010991  -23.484996 H    1964 MOH     0.0372 ****
12090 O1      2.780750   10.396777  -22.939110 O    1964 MOH    -0.6497 ****
12091 HO1     3.039980    9.509246  -22.681723 H    1964 MOH     0.4215 ****
12092 HC1    11.945608    7.131199  -23.236802 H    1965 MOH     0.0372 ****
12093 C1     12.144217    8.091808  -22.762333 C    1965 MOH     0.1166 ****
12094 HC2    13.208851    8.308996  -22.845772 H    1965 MOH     0.0372 ****
12095 HC3    11.915009    8.056698  -21.697430 H    1965 MOH     0.0372 ****
12096 O1     11.350937    9.087525  -23.413578 O    1965 MOH    -0.6497 ****
12097 HO1    11.398280    9.863605  -22.850014 H    1965 MOH     0.4215 ****
12098 HC1    -5.359889   10.526600  -10.631209 H    1966 MOH     0.0372 ****
12099 C1     -4.319504   10.553953  -10.957185 C    1966 MOH     0.1166 ****
12100 HC2    -3.735225    9.914228  -10.294626 H    1966 MOH     0.0372 ****
12101 HC3    -3.978290   11.587638  -10.903445 H    1966 MOH     0.0372 ****
12102 O1     -4.252531   10.071812  -12.280182 O    1966 MOH    -0.6497 ****
12103 HO1    -4.847202    9.319002  -12.324023 H    1966 MOH     0.4215 ****
12104 HC1    -2.479488    5.844401  -14.791118 H    1967 MOH     0.0372 ****
12105 C1     -1.564965    6.150587  -15.298821 C    1967 MOH     0.1166 ****
12106 HC2    -0.969717    6.805009  -14.661718 H    1967 MOH     0.0372 ****
12107 HC3    -1.840362    6.696823  -16.201089 H    1967 MOH     0.0372 ****
12108 O1     -0.862908    5.011166  -15.696922 O    1967 MOH    -0.6497 ****
12109 HO1     0.071823    5.209983  -15.607119 H    1967 MOH     0.4215 ****
12110 HC1    10.786866    1.663938  -18.224829 H    1968 MOH     0.0372 ****
12111 C1     10.834209    2.387354  -17.410242 C    1968 MOH     0.1166 ****
12112 HC2    10.040930    3.114853  -17.581362 H    1968 MOH     0.0372 ****
12113 HC3    11.794920    2.900931  -17.456911 H    1968 MOH     0.0372 ****
12114 O1     10.648879    1.745588  -16.116236 O    1968 MOH    -0.6497 ****
12115 HO1    10.457199    2.421239  -15.460748 H    1968 MOH     0.4215 ****
12116 HC1    -5.533671    5.506779  -19.646821 H    1969 MOH     0.0372 ****
12117 C1     -5.490947    5.748462  -18.584746 C    1969 MOH     0.1166 ****
12118 HC2    -4.454026    5.686409  -18.253820 H    1969 MOH     0.0372 ****
12119 HC3    -6.088505    5.046684  -18.002797 H    1969 MOH     0.0372 ****
12120 O1     -5.924537    7.042201  -18.315339 O    1969 MOH    -0.6497 ****
12121 HO1    -6.694145    7.233670  -18.856275 H    1969 MOH     0.4215 ****
12122 HC1    -8.136944    9.444334  -11.931579 H    1970 MOH     0.0372 ****
12123 C1     -8.571688    8.558844  -11.468424 C    1970 MOH     0.1166 ****
12124 HC2    -8.983916    7.884009  -12.218664 H    1970 MOH     0.0372 ****
12125 HC3    -9.393835    8.845026  -10.811521 H    1970 MOH     0.0372 ****
12126 O1     -7.666403    7.856248  -10.672928 O    1970 MOH    -0.6497 ****
12127 HO1    -8.192947    7.138548  -10.312304 H    1970 MOH     0.4215 ****
12128 HC1    17.544751   10.378406  -13.905820 H    1971 MOH     0.0372 ****
12129 C1     17.627312   11.318194  -13.359934 C    1971 MOH     0.1166 ****
12130 HC2    16.800547   11.973841  -13.632877 H    1971 MOH     0.0372 ****
12131 HC3    18.584559   11.780331  -13.604593 H    1971 MOH     0.0372 ****
12132 O1     17.586320   10.960160  -12.018552 O    1971 MOH    -0.6497 ****
12133 HO1    17.810332   11.703172  -11.454281 H    1971 MOH     0.4215 ****
12134 HC1     5.452150   15.002635  -14.162500 H    1972 MOH     0.0372 ****
12135 C1      4.786465   15.861589  -14.077648 C    1972 MOH     0.1166 ****
12136 HC2     3.744348   15.541522  -14.084719 H    1972 MOH     0.0372 ****
12137 HC3     4.921565   16.486209  -14.960117 H    1972 MOH     0.0372 ****
12138 O1      5.012209   16.658490  -12.874152 O    1972 MOH    -0.6497 ****
12139 HO1     4.939463   16.091433  -12.104113 H    1972 MOH     0.4215 ****
12140 HC1     5.526628    4.348579   -5.212650 H    1973 MOH     0.0372 ****
12141 C1      5.826273    3.301422   -5.227499 C    1973 MOH     0.1166 ****
12142 HC2     6.460203    3.112812   -6.094412 H    1973 MOH     0.0372 ****
12143 HC3     4.958515    2.647408   -5.306695 H    1973 MOH     0.0372 ****
12144 O1      6.531217    2.990337   -4.033903 O    1973 MOH    -0.6497 ****
12145 HO1     6.965385    2.141997   -4.152697 H    1973 MOH     0.4215 ****
12146 HC1    -2.224299    7.616198  -19.260033 H    1974 MOH     0.0372 ****
12147 C1     -2.764699    8.485767  -19.633386 C    1974 MOH     0.1166 ****
12148 HC2    -3.208104    8.156311  -20.573130 H    1974 MOH     0.0372 ****
12149 HC3    -2.041857    9.288792  -19.779757 H    1974 MOH     0.0372 ****
12150 O1     -3.756010    8.824205  -18.639901 O    1974 MOH    -0.6497 ****
12151 HO1    -4.391672    8.110179  -18.557169 H    1974 MOH     0.4215 ****
12152 HC1    -3.780836    0.844176  -23.569142 H    1975 MOH     0.0372 ****
12153 C1     -3.368030    1.851732  -23.605911 C    1975 MOH     0.1166 ****
12154 HC2    -3.453478    2.322443  -22.626569 H    1975 MOH     0.0372 ****
12155 HC3    -3.944803    2.439610  -24.320089 H    1975 MOH     0.0372 ****
12156 O1     -2.028578    1.796211  -24.037247 O    1975 MOH    -0.6497 ****
12157 HO1    -1.995091    1.135665  -24.733040 H    1975 MOH     0.4215 ****
12158 HC1    12.332433   -0.999065  -17.620252 H    1976 MOH     0.0372 ****
12159 C1     11.652314   -1.567755  -16.985978 C    1976 MOH     0.1166 ****
12160 HC2    12.006807   -1.530605  -15.955723 H    1976 MOH     0.0372 ****
12161 HC3    11.597466   -2.604298  -17.317611 H    1976 MOH     0.0372 ****
12162 O1     10.419671   -0.944768  -17.068002 O    1976 MOH    -0.6497 ****
12163 HO1    10.521862   -0.051929  -16.732126 H    1976 MOH     0.4215 ****
12164 HC1     2.392771   19.256582  -11.428826 H    1977 MOH     0.0372 ****
12165 C1      1.938396   19.554603  -12.373520 C    1977 MOH     0.1166 ****
12166 HC2     0.857596   19.419881  -12.325437 H    1977 MOH     0.0372 ****
12167 HC3     2.361016   18.929983  -13.161237 H    1977 MOH     0.0372 ****
12168 O1      2.220143   20.912029  -12.633028 O    1977 MOH    -0.6497 ****
12169 HO1     1.950520   21.106355  -13.533882 H    1977 MOH     0.4215 ****
12170 HC1     6.200396    5.464322  -12.636564 H    1978 MOH     0.0372 ****
12171 C1      6.060099    5.310004  -13.705709 C    1978 MOH     0.1166 ****
12172 HC2     5.863800    6.264488  -14.195027 H    1978 MOH     0.0372 ****
12173 HC3     5.225828    4.631087  -13.881779 H    1978 MOH     0.0372 ****
12174 O1      7.235585    4.755603  -14.257253 O    1978 MOH    -0.6497 ****
12175 HO1     7.882217    4.654765  -13.555096 H    1978 MOH     0.4215 ****
12176 HC1     8.963594   13.500689  -11.346094 H    1979 MOH     0.0372 ****
12177 C1      9.446259   12.534774  -11.493172 C    1979 MOH     0.1166 ****
12178 HC2     8.673187   11.780739  -11.640958 H    1979 MOH     0.0372 ****
12179 HC3    10.010907   12.292274  -10.593732 H    1979 MOH     0.0372 ****
12180 O1     10.354431   12.562535  -12.616058 O    1979 MOH    -0.6497 ****
12181 HO1    11.065726   13.166742  -12.386955 H    1979 MOH     0.4215 ****
12182 HC1     3.656590    5.258156  -20.005324 H    1980 MOH     0.0372 ****
12183 C1      3.495510    4.245292  -19.636921 C    1980 MOH     0.1166 ****
12184 HC2     2.744377    4.290200  -18.849204 H    1980 MOH     0.0372 ****
12185 HC3     4.420425    3.844801  -19.221849 H    1980 MOH     0.0372 ****
12186 O1      3.044022    3.398585  -20.693339 O    1980 MOH    -0.6497 ****
12187 HO1     3.448744    2.540447  -20.543432 H    1980 MOH     0.4215 ****
12188 HC1    12.662100   -0.624702  -12.391198 H    1981 MOH     0.0372 ****
12189 C1     12.495823   -0.537745  -11.317102 C    1981 MOH     0.1166 ****
12190 HC2    12.567992    0.518394  -11.057594 H    1981 MOH     0.0372 ****
12191 HC3    13.282751   -1.091738  -10.804450 H    1981 MOH     0.0372 ****
12192 O1     11.170227   -1.056628  -11.083050 O    1981 MOH    -0.6497 ****
12193 HO1    10.859035   -0.707984  -10.244422 H    1981 MOH     0.4215 ****
12194 HC1     7.457865   18.302097  -20.218163 H    1982 MOH     0.0372 ****
12195 C1      6.877050   18.683401  -19.378120 C    1982 MOH     0.1166 ****
12196 HC2     7.174386   19.690550  -19.086085 H    1982 MOH     0.0372 ****
12197 HC3     7.084896   18.028163  -18.531713 H    1982 MOH     0.0372 ****
12198 O1      5.497760   18.639719  -19.663084 O    1982 MOH    -0.6497 ****
12199 HO1     5.092460   17.964884  -19.113662 H    1982 MOH     0.4215 ****
12200 HC1    -3.964433    7.945247   -9.192247 H    1983 MOH     0.0372 ****
12201 C1     -4.355877    7.176107   -9.856927 C    1983 MOH     0.1166 ****
12202 HC2    -3.856469    7.209991  -10.824956 H    1983 MOH     0.0372 ****
12203 HC3    -5.427439    7.338590   -9.981378 H    1983 MOH     0.0372 ****
12204 O1     -4.215003    5.909312   -9.272150 O    1983 MOH    -0.6497 ****
12205 HO1    -4.661295    5.908904   -8.422915 H    1983 MOH     0.4215 ****
12206 HC1    12.255645    5.513311  -13.572773 H    1984 MOH     0.0372 ****
12207 C1     12.238902    4.506163  -13.990673 C    1984 MOH     0.1166 ****
12208 HC2    12.740619    3.847658  -13.282859 H    1984 MOH     0.0372 ****
12209 HC3    12.790272    4.477586  -14.931125 H    1984 MOH     0.0372 ****
12210 O1     10.895985    4.070562  -14.139873 O    1984 MOH    -0.6497 ****
12211 HO1    10.404083    4.331433  -13.357106 H    1984 MOH     0.4215 ****
12212 HC1     6.390344    9.304305  -14.441100 H    1985 MOH     0.0372 ****
12213 C1      5.326865    9.505163  -14.572622 C    1985 MOH     0.1166 ****
12214 HC2     4.744896    8.584155  -14.545752 H    1985 MOH     0.0372 ****
12215 HC3     5.161742    9.975873  -15.542066 H    1985 MOH     0.0372 ****
12216 O1      4.876531   10.395553  -13.593279 O    1985 MOH    -0.6497 ****
12217 HO1     4.986805   11.290025  -13.923498 H    1985 MOH     0.4215 ****
12218 HC1    10.103283   12.231854  -17.237708 H    1986 MOH     0.0372 ****
12219 C1      9.699138   12.577640  -18.188766 C    1986 MOH     0.1166 ****
12220 HC2     8.766140   12.054265  -18.400898 H    1986 MOH     0.0372 ****
12221 HC3    10.420249   12.432712  -18.992747 H    1986 MOH     0.0372 ****
12222 O1      9.452610   13.943639  -18.034617 O    1986 MOH    -0.6497 ****
12223 HO1    10.277066   14.399244  -17.846527 H    1986 MOH     0.4215 ****
12224 HC1     7.055451    4.551070  -10.614946 H    1987 MOH     0.0372 ****
12225 C1      7.809471    3.797444  -10.842634 C    1987 MOH     0.1166 ****
12226 HC2     7.323342    2.907871  -11.242149 H    1987 MOH     0.0372 ****
12227 HC3     8.298486    3.507996   -9.912788 H    1987 MOH     0.0372 ****
12228 O1      8.743624    4.339598  -11.787329 O    1987 MOH    -0.6497 ****
12229 HO1     8.960130    5.237336  -11.527820 H    1987 MOH     0.4215 ****
12230 HC1     5.300884   12.903830  -19.701268 H    1988 MOH     0.0372 ****
12231 C1      5.063593   12.617240  -18.675963 C    1988 MOH     0.1166 ****
12232 HC2     5.825695   11.954653  -18.266548 H    1988 MOH     0.0372 ****
12233 HC3     4.110388   12.088558  -18.695055 H    1988 MOH     0.0372 ****
12234 O1      4.961979   13.743597  -17.838041 O    1988 MOH    -0.6497 ****
12235 HO1     5.735629   14.300039  -17.957542 H    1988 MOH     0.4215 ****
12236 HC1     2.397967    2.326934  -11.126891 H    1989 MOH     0.0372 ****
12237 C1      2.486301    3.312853  -10.670807 C    1989 MOH     0.1166 ****
12238 HC2     1.885280    3.344697   -9.762882 H    1989 MOH     0.0372 ****
12239 HC3     2.134118    4.048108  -11.394177 H    1989 MOH     0.0372 ****
12240 O1      3.826331    3.516569  -10.363216 O    1989 MOH    -0.6497 ****
12241 HO1     4.311306    3.049941  -11.046988 H    1989 MOH     0.4215 ****
12242 HC1    12.342825   14.119185  -18.904358 H    1990 MOH     0.0372 ****
12243 C1     12.763136   15.002635  -18.423526 C    1990 MOH     0.1166 ****
12244 HC2    13.016593   15.744422  -19.180837 H    1990 MOH     0.0372 ****
12245 HC3    13.649946   14.719719  -17.857133 H    1990 MOH     0.0372 ****
12246 O1     11.757969   15.499065  -17.600453 O    1990 MOH    -0.6497 ****
12247 HO1    12.114194   15.695432  -16.731419 H    1990 MOH     0.4215 ****
12248 HC1     4.361535   -2.510400  -10.313011 H    1991 MOH     0.0372 ****
12249 C1      5.437716   -2.502235  -10.482717 C    1991 MOH     0.1166 ****
12250 HC2     5.858027   -1.642056   -9.962993 H    1991 MOH     0.0372 ****
12251 HC3     5.641521   -2.441815  -11.551862 H    1991 MOH     0.0372 ****
12252 O1      6.031232   -3.646964   -9.982085 O    1991 MOH    -0.6497 ****
12253 HO1     5.569352   -3.908243   -9.183054 H    1991 MOH     0.4215 ****
12254 HC1     1.007707   12.157552  -17.714298 H    1992 MOH     0.0372 ****
12255 C1      0.425161   11.284717  -17.418727 C    1992 MOH     0.1166 ****
12256 HC2     0.761179   10.369833  -17.905924 H    1992 MOH     0.0372 ****
12257 HC3    -0.595017   11.464755  -17.756017 H    1992 MOH     0.0372 ****
12258 O1      0.418233   11.137748  -16.015827 O    1992 MOH    -0.6497 ****
12259 HO1     0.231749   11.999560  -15.634697 H    1992 MOH     0.4215 ****
12260 HC1     0.176900    9.143047  -13.443373 H    1993 MOH     0.0372 ****
12261 C1      1.208625    8.859314  -13.649141 C    1993 MOH     0.1166 ****
12262 HC2     1.479402    8.033428  -12.992239 H    1993 MOH     0.0372 ****
12263 HC3     1.856990    9.710104  -13.438423 H    1993 MOH     0.0372 ****
12264 O1      1.346612    8.540064  -15.011028 O    1993 MOH    -0.6497 ****
12265 HO1     1.049854    9.332882  -15.463577 H    1993 MOH     0.4215 ****
12266 HC1     5.670965    8.415548  -19.129925 H    1994 MOH     0.0372 ****
12267 C1      5.685399    9.123043  -19.959362 C    1994 MOH     0.1166 ****
12268 HC2     4.694666    9.554153  -20.100783 H    1994 MOH     0.0372 ****
12269 HC3     6.024304    8.629879  -20.870115 H    1994 MOH     0.0372 ****
12270 O1      6.562394   10.174690  -19.652477 O    1994 MOH    -0.6497 ****
12271 HO1     6.758693   10.181631  -18.712732 H    1994 MOH     0.4215 ****
12272 HC1    11.802425    4.580872   -5.800255 H    1995 MOH     0.0372 ****
12273 C1     11.877481    5.622722   -6.109968 C    1995 MOH     0.1166 ****
12274 HC2    12.916134    5.847259   -6.353213 H    1995 MOH     0.0372 ****
12275 HC3    11.515482    6.224072   -5.274875 H    1995 MOH     0.0372 ****
12276 O1     10.989516    5.780306   -7.186185 O    1995 MOH    -0.6497 ****
12277 HO1    11.356711    5.259789   -7.903898 H    1995 MOH     0.4215 ****
12278 HC1     1.527322    0.668221   -5.251541 H    1996 MOH     0.0372 ****
12279 C1      2.519788    0.689041   -5.701968 C    1996 MOH     0.1166 ****
12280 HC2     3.042867    1.600252   -5.412054 H    1996 MOH     0.0372 ****
12281 HC3     2.459743    0.633520   -6.788084 H    1996 MOH     0.0372 ****
12282 O1      3.254754   -0.375670   -5.253662 O    1996 MOH    -0.6497 ****
12283 HO1     2.807885   -1.171754   -5.549233 H    1996 MOH     0.4215 ****
12284 HC1    -0.532663   12.897707  -12.246241 H    1997 MOH     0.0372 ****
12285 C1     -0.772264   12.264922  -11.392056 C    1997 MOH     0.1166 ****
12286 HC2    -1.817845   12.389437  -11.111335 H    1997 MOH     0.0372 ****
12287 HC3    -0.140065   12.572333  -10.558377 H    1997 MOH     0.0372 ****
12288 O1     -0.470309   10.914845  -11.708133 O    1997 MOH    -0.6497 ****
12289 HO1    -0.932767   10.641726  -12.503628 H    1997 MOH     0.4215 ****
12290 HC1    -3.126121    4.959318  -21.345998 H    1998 MOH     0.0372 ****
12291 C1     -2.338037    4.993611  -22.098360 C    1998 MOH     0.1166 ****
12292 HC2    -2.758348    5.385121  -23.025377 H    1998 MOH     0.0372 ****
12293 HC3    -1.940243    3.995852  -22.285036 H    1998 MOH     0.0372 ****
12294 O1     -1.331716    5.893799  -21.748342 O    1998 MOH    -0.6497 ****
12295 HO1    -0.504373    5.428804  -21.891885 H    1998 MOH     0.4215 ****
12296 HC1     0.077596    4.338781  -24.064117 H    1999 MOH     0.0372 ****
12297 C1      0.507722    3.768866  -23.239630 C    1999 MOH     0.1166 ****
12298 HC2     1.283103    3.125059  -23.654702 H    1999 MOH     0.0372 ****
12299 HC3    -0.237637    3.120160  -22.779304 H    1999 MOH     0.0372 ****
12300 O1      1.076989    4.663338  -22.299885 O    1999 MOH    -0.6497 ****
12301 HO1     1.491527    4.124042  -21.623184 H    1999 MOH     0.4215 ****
12302 HC1    10.424868   13.054066  -21.778747 H    2000 MOH     0.0372 ****
12303 C1     11.168495   12.533141  -22.381202 C    2000 MOH     0.1166 ****
12304 HC2    12.084172   13.122651  -22.429286 H    2000 MOH     0.0372 ****
12305 HC3    10.832477   12.411891  -23.411457 H    2000 MOH     0.0372 ****
12306 O1     11.506822   11.304313  -21.797132 O    2000 MOH    -0.6497 ****
12307 HO1    10.803032   11.032828  -21.203870 H    2000 MOH     0.4215 ****
12308 HC1    11.140782    7.376965  -17.118914 H    2001 MOH     0.0372 ****
12309 C1     11.101522    6.307354  -17.323975 C    2001 MOH     0.1166 ****
12310 HC2    10.323254    5.879102  -16.692528 H    2001 MOH     0.0372 ****
12311 HC3    12.070316    5.870937  -17.080023 H    2001 MOH     0.0372 ****
12312 O1     10.812847    6.015457  -18.692226 O    2001 MOH    -0.6497 ****
12313 HO1    11.242396    5.201001  -18.964462 H    2001 MOH     0.4215 ****
12314 HC1    15.302323    6.057098  -19.365392 H    2002 MOH     0.0372 ****
12315 C1     14.779821    6.986271  -19.137704 C    2002 MOH     0.1166 ****
12316 HC2    13.747518    6.773166  -18.859103 H    2002 MOH     0.0372 ****
12317 HC3    14.820235    7.632528  -20.013809 H    2002 MOH     0.0372 ****
12318 O1     15.467445    7.549654  -18.071386 O    2002 MOH    -0.6497 ****
12319 HO1    15.929902    6.834403  -17.628738 H    2002 MOH     0.4215 ****
12320 HC1     8.702632    1.271203   -9.725405 H    2003 MOH     0.0372 ****
12321 C1      8.953779    0.750687   -8.801217 C    2003 MOH     0.1166 ****
12322 HC2     8.286939   -0.102960   -8.680301 H    2003 MOH     0.0372 ****
12323 HC3     8.830803    1.420622   -7.950567 H    2003 MOH     0.0372 ****
12324 O1     10.293809    0.319985   -8.898090 O    2003 MOH    -0.6497 ****
12325 HO1    10.483757   -0.235641   -8.139365 H    2003 MOH     0.4215 ****
12326 HC1    10.175452    8.201626  -19.746523 H    2004 MOH     0.0372 ****
12327 C1      9.238413    8.457598  -20.239376 C    2004 MOH     0.1166 ****
12328 HC2     8.400100    8.125692  -19.626314 H    2004 MOH     0.0372 ****
12329 HC3     9.219938    7.958719  -21.208112 H    2004 MOH     0.0372 ****
12330 O1      9.207813    9.841152  -20.456458 O    2004 MOH    -0.6497 ****
12331 HO1     8.291558   10.082426  -20.608486 H    2004 MOH     0.4215 ****
12332 HC1     0.228862    7.499439  -10.504637 H    2005 MOH     0.0372 ****
12333 C1     -0.780924    7.898706  -10.412713 C    2005 MOH     0.1166 ****
12334 HC2    -1.393493    7.157327   -9.899354 H    2005 MOH     0.0372 ****
12335 HC3    -1.182182    8.090583  -11.408319 H    2005 MOH     0.0372 ****
12336 O1     -0.712797    9.087525   -9.650452 O    2005 MOH    -0.6497 ****
12337 HO1    -0.378511    9.780731  -10.224623 H    2005 MOH     0.4215 ****
12338 HC1     6.845873    3.491666  -21.454185 H    2006 MOH     0.0372 ****
12339 C1      7.151292    2.511462  -21.821174 C    2006 MOH     0.1166 ****
12340 HC2     8.100455    2.591070  -22.350797 H    2006 MOH     0.0372 ****
12341 HC3     6.384570    2.119135  -22.487975 H    2006 MOH     0.0372 ****
12342 O1      7.304867    1.590862  -20.747079 O    2006 MOH    -0.6497 ****
12343 HO1     8.154149    1.156894  -20.855266 H    2006 MOH     0.4215 ****
12344 HC1    12.686926    0.843359  -14.781219 H    2007 MOH     0.0372 ****
12345 C1     13.558147    1.346729  -15.200533 C    2007 MOH     0.1166 ****
12346 HC2    13.260235    2.295907  -15.643889 H    2007 MOH     0.0372 ****
12347 HC3    13.996934    0.735173  -15.989664 H    2007 MOH     0.0372 ****
12348 O1     14.526941    1.621889  -14.214826 O    2007 MOH    -0.6497 ****
12349 HO1    14.957067    0.783755  -14.031685 H    2007 MOH     0.4215 ****
12350 HC1    -4.027364   14.735640  -12.080778 H    2008 MOH     0.0372 ****
12351 C1     -3.164803   15.198594  -12.560196 C    2008 MOH     0.1166 ****
12352 HC2    -2.377875   15.313312  -11.814199 H    2008 MOH     0.0372 ****
12353 HC3    -3.481768   16.190637  -12.882637 H    2008 MOH     0.0372 ****
12354 O1     -2.782020   14.411083  -13.719144 O    2008 MOH    -0.6497 ****
12355 HO1    -3.475995   14.457215  -14.380289 H    2008 MOH     0.4215 ****
12356 HC1     4.131750    7.167125  -26.529091 H    2009 MOH     0.0372 ****
12357 C1      5.055510    7.355328  -27.077099 C    2009 MOH     0.1166 ****
12358 HC2     5.646139    6.440443  -27.039622 H    2009 MOH     0.0372 ****
12359 HC3     5.578012    8.178764  -26.589902 H    2009 MOH     0.0372 ****
12360 O1      4.782423    7.707646  -28.431208 O    2009 MOH    -0.6497 ****
12361 HO1     5.564156    8.129775  -28.794661 H    2009 MOH     0.4215 ****
12362 HC1     8.239597   16.422930  -16.507974 H    2010 MOH     0.0372 ****
12363 C1      7.224615   16.039585  -16.611918 C    2010 MOH     0.1166 ****
12364 HC2     6.503505   16.856898  -16.590705 H    2010 MOH     0.0372 ****
12365 HC3     6.989633   15.344747  -15.805816 H    2010 MOH     0.0372 ****
12366 O1      7.097021   15.327600  -17.794201 O    2010 MOH    -0.6497 ****
12367 HO1     7.817554   14.694407  -17.826021 H    2010 MOH     0.4215 ****
12368 HC1    11.113646    8.140797   -9.248108 H    2011 MOH     0.0372 ****
12369 C1     10.491263    9.035269   -9.257301 C    2011 MOH     0.1166 ****
12370 HC2    10.935245    9.822372   -8.647774 H    2011 MOH     0.0372 ****
12371 HC3     9.519582    8.757252   -8.847886 H    2011 MOH     0.0372 ****
12372 O1     10.311707    9.488017  -10.578883 O    2011 MOH    -0.6497 ****
12373 HO1    11.169072    9.763584  -10.911930 H    2011 MOH     0.4215 ****
12374 HC1     7.097598   13.787688  -20.728694 H    2012 MOH     0.0372 ****
12375 C1      7.690537   13.449250  -21.577929 C    2012 MOH     0.1166 ****
12376 HC2     8.057731   12.453532  -21.329735 H    2012 MOH     0.0372 ****
12377 HC3     8.537510   14.119185  -21.729957 H    2012 MOH     0.0372 ****
12378 O1      6.886288   13.398219  -22.748191 O    2012 MOH    -0.6497 ****
12379 HO1     7.293320   12.747879  -23.325897 H    2012 MOH     0.4215 ****
12380 HC1     2.854073   14.108571  -15.066183 H    2013 MOH     0.0372 ****
12381 C1      3.035361   13.070396  -14.786876 C    2013 MOH     0.1166 ****
12382 HC2     2.376027   12.433120  -15.375896 H    2013 MOH     0.0372 ****
12383 HC3     2.810772   12.915669  -13.731165 H    2013 MOH     0.0372 ****
12384 O1      4.365576   12.674803  -15.027999 O    2013 MOH    -0.6497 ****
12385 HO1     4.545132   12.782989  -15.964916 H    2013 MOH     0.4215 ****
12386 HC1     6.742527    8.320427  -11.407612 H    2014 MOH     0.0372 ****
12387 C1      7.196325    9.199794  -10.950821 C    2014 MOH     0.1166 ****
12388 HC2     8.033483    9.516594  -11.573075 H    2014 MOH     0.0372 ****
12389 HC3     7.500011    8.950762   -9.934002 H    2014 MOH     0.0372 ****
12390 O1      6.246006   10.197552  -10.986177 O    2014 MOH    -0.6497 ****
12391 HO1     5.918071   10.253074  -11.887031 H    2014 MOH     0.4215 ****
12392 HC1    -1.424669   19.793020  -13.736822 H    2015 MOH     0.0372 ****
12393 C1     -2.332264   19.729333  -13.137196 C    2015 MOH     0.1166 ****
12394 HC2    -2.943101   18.882626  -13.449737 H    2015 MOH     0.0372 ****
12395 HC3    -2.881324   20.661364  -13.269425 H    2015 MOH     0.0372 ****
12396 O1     -1.960450   19.546030  -11.812785 O    2015 MOH    -0.6497 ****
12397 HO1    -1.433330   18.743414  -11.814199 H    2015 MOH     0.4215 ****
12398 HC1    14.105475   11.639485   -6.030772 H    2016 MOH     0.0372 ****
12399 C1     13.852596   12.504155   -5.417004 C    2016 MOH     0.1166 ****
12400 HC2    14.660309   12.687459   -4.709190 H    2016 MOH     0.0372 ****
12401 HC3    12.934609   12.271454   -4.878188 H    2016 MOH     0.0372 ****
12402 O1     13.660338   13.612549   -6.273310 O    2016 MOH    -0.6497 ****
12403 HO1    12.975024   13.341472   -6.888493 H    2016 MOH     0.4215 ****
12404 HC1    10.364823    4.380014   -9.564892 H    2017 MOH     0.0372 ****
12405 C1     11.187547    3.689258   -9.750154 C    2017 MOH     0.1166 ****
12406 HC2    11.462943    3.810508  -10.797379 H    2017 MOH     0.0372 ****
12407 HC3    10.879242    2.649450   -9.643381 H    2017 MOH     0.0372 ****
12408 O1     12.277584    3.999935   -8.865563 O    2017 MOH    -0.6497 ****
12409 HO1    12.888421    3.259373   -8.852835 H    2017 MOH     0.4215 ****
12410 HC1     6.112061    5.721518  -18.760109 H    2018 MOH     0.0372 ****
12411 C1      7.039286    5.544747  -18.216343 C    2018 MOH     0.1166 ****
12412 HC2     6.973468    4.620064  -17.642880 H    2018 MOH     0.0372 ****
12413 HC3     7.262720    6.381247  -17.553784 H    2018 MOH     0.0372 ****
12414 O1      8.042720    5.442684  -19.146896 O    2018 MOH    -0.6497 ****
12415 HO1     8.852743    5.783572  -18.760109 H    2018 MOH     0.4215 ****
12416 HC1     4.015125    5.865630  -24.033004 H    2019 MOH     0.0372 ****
12417 C1      4.295140    4.957277  -23.499138 C    2019 MOH     0.1166 ****
12418 HC2     5.103430    4.461664  -24.036539 H    2019 MOH     0.0372 ****
12419 HC3     3.464333    4.251416  -23.475804 H    2019 MOH     0.0372 ****
12420 O1      4.732771    5.218556  -22.179677 O    2019 MOH    -0.6497 ****
12421 HO1     4.385206    4.513920  -21.628134 H    2019 MOH     0.4215 ****
12422 HC1    15.198977    5.337765  -10.629795 H    2020 MOH     0.0372 ****
12423 C1     14.367592    6.021172  -10.799500 C    2020 MOH     0.1166 ****
12424 HC2    13.445564    5.561076  -10.442411 H    2020 MOH     0.0372 ****
12425 HC3    14.297156    6.209375  -11.870767 H    2020 MOH     0.0372 ****
12426 O1     14.695527    7.241835  -10.147548 O    2020 MOH    -0.6497 ****
12427 HO1    15.308673    7.044651   -9.435491 H    2020 MOH     0.4215 ****
12428 HC1    14.958799    8.164068  -14.607270 H    2021 MOH     0.0372 ****
12429 C1     13.949014    7.843184  -14.863243 C    2021 MOH     0.1166 ****
12430 HC2    13.251574    8.273886  -14.144115 H    2021 MOH     0.0372 ****
12431 HC3    13.867607    6.756836  -14.828595 H    2021 MOH     0.0372 ****
12432 O1     13.593943    8.302464  -16.135328 O    2021 MOH    -0.6497 ****
12433 HO1    14.192655    7.895032  -16.764653 H    2021 MOH     0.4215 ****
12434 HC1     9.362543    8.829104   -3.560141 H    2022 MOH     0.0372 ****
12435 C1      9.587132    9.895040   -3.509937 C    2022 MOH     0.1166 ****
12436 HC2     9.228020   10.442910   -4.381092 H    2022 MOH     0.0372 ****
12437 HC3    10.673128    9.941581   -3.582061 H    2022 MOH     0.0372 ****
12438 O1      9.226288   10.493124   -2.243508 O    2022 MOH    -0.6497 ****
12439 HO1     9.154119   11.441893   -2.369373 H    2022 MOH     0.4215 ****
12440 HC1     8.449175   -4.621861  -12.192501 H    2023 MOH     0.0372 ****
12441 C1      9.030567   -3.864560  -11.665706 C    2023 MOH     0.1166 ****
12442 HC2    10.084231   -4.108693  -11.802885 H    2023 MOH     0.0372 ****
12443 HC3     8.800781   -3.853946  -10.600803 H    2023 MOH     0.0372 ****
12444 O1      8.902395   -2.604298  -12.217957 O    2023 MOH    -0.6497 ****
12445 HO1     9.700870   -2.127872  -11.976833 H    2023 MOH     0.4215 ****
12446 HC1     3.604629    6.735199   -7.110524 H    2024 MOH     0.0372 ****
12447 C1      3.949884    5.892166   -7.708030 C    2024 MOH     0.1166 ****
12448 HC2     4.690047    5.360218   -7.109110 H    2024 MOH     0.0372 ****
12449 HC3     4.391557    6.277961   -8.626561 H    2024 MOH     0.0372 ****
12450 O1      2.897375    4.974424   -8.041784 O    2024 MOH    -0.6497 ****
12451 HO1     3.176235    4.461256   -8.803338 H    2024 MOH     0.4215 ****
12452 HC1    10.762040   15.272487  -13.333064 H    2025 MOH     0.0372 ****
12453 C1     10.269560   15.708904  -14.202098 C    2025 MOH     0.1166 ****
12454 HC2     9.327325   16.196353  -13.951782 H    2025 MOH     0.0372 ****
12455 HC3    10.017258   14.874445  -14.856879 H    2025 MOH     0.0372 ****
12456 O1     11.107296   16.633995  -14.902134 O    2025 MOH    -0.6497 ****
12457 HO1    10.566318   17.333732  -15.274072 H    2025 MOH     0.4215 ****
12458 HC1    17.103078    3.872562  -15.672173 H    2026 MOH     0.0372 ****
12459 C1     16.197216    4.197119  -16.183411 C    2026 MOH     0.1166 ****
12460 HC2    15.311560    3.804384  -15.684194 H    2026 MOH     0.0372 ****
12461 HC3    16.204721    3.848883  -17.216494 H    2026 MOH     0.0372 ****
12462 O1     16.104262    5.589246  -16.169269 O    2026 MOH    -0.6497 ****
12463 HO1    16.374462    5.874611  -15.293164 H    2026 MOH     0.4215 ****
12464 HC1     9.637362    8.436369  -13.687325 H    2027 MOH     0.0372 ****
12465 C1     10.300737    7.614565  -13.417917 C    2027 MOH     0.1166 ****
12466 HC2    11.316874    8.000768  -13.340135 H    2027 MOH     0.0372 ****
12467 HC3    10.286881    6.831953  -14.176642 H    2027 MOH     0.0372 ****
12468 O1      9.922573    7.187538  -12.130982 O    2027 MOH    -0.6497 ****
12469 HO1     9.976266    7.956677  -11.559640 H    2027 MOH     0.4215 ****
12470 HC1    13.417274   14.635619   -9.583984 H    2028 MOH     0.0372 ****
12471 C1     13.077792   13.889750  -10.303111 C    2028 MOH     0.1166 ****
12472 HC2    12.571456   13.052433   -9.821572 H    2028 MOH     0.0372 ****
12473 HC3    13.964602   13.492933  -10.798086 H    2028 MOH     0.0372 ****
12474 O1     12.236593   14.510287  -11.257706 O    2028 MOH    -0.6497 ****
12475 HO1    12.766023   15.195328  -11.673484 H    2028 MOH     0.4215 ****
12476 HC1     4.123667    7.399418  -18.564947 H    2029 MOH     0.0372 ****
12477 C1      3.493200    7.085884  -17.733390 C    2029 MOH     0.1166 ****
12478 HC2     2.516901    6.773166  -18.103914 H    2029 MOH     0.0372 ****
12479 HC3     3.322882    7.912995  -17.043253 H    2029 MOH     0.0372 ****
12480 O1      4.095377    6.031787  -17.037596 O    2029 MOH    -0.6497 ****
12481 HO1     3.444703    5.677427  -16.428070 H    2029 MOH     0.4215 ****
12482 HC1     6.785829   12.131833  -15.421150 H    2030 MOH     0.0372 ****
12483 C1      7.442276   12.407400  -14.595957 C    2030 MOH     0.1166 ****
12484 HC2     6.895525   12.371474  -13.652676 H    2030 MOH     0.0372 ****
12485 HC3     7.788686   13.430062  -14.746571 H    2030 MOH     0.0372 ****
12486 O1      8.561181   11.535382  -14.530903 O    2030 MOH    -0.6497 ****
12487 HO1     9.166244   11.861981  -13.860566 H    2030 MOH     0.4215 ****
12488 HC1     3.242053   22.240877  -15.373067 H    2031 MOH     0.0372 ****
12489 C1      2.334458   22.620548  -15.842586 C    2031 MOH     0.1166 ****
12490 HC2     2.464939   22.600544  -16.925167 H    2031 MOH     0.0372 ****
12491 HC3     2.191275   23.651375  -15.520853 H    2031 MOH     0.0372 ****
12492 O1      1.194191   21.827321  -15.468527 O    2031 MOH    -0.6497 ****
12493 HO1     0.421119   22.332324  -15.730863 H    2031 MOH     0.4215 ****
12494 HC1    -3.876099    2.064022  -15.368117 H    2032 MOH     0.0372 ****
12495 C1     -3.232353    2.848267  -15.764804 C    2032 MOH     0.1166 ****
12496 HC2    -3.198289    3.649658  -15.027292 H    2032 MOH     0.0372 ****
12497 HC3    -3.631302    3.288358  -16.679800 H    2032 MOH     0.0372 ****
12498 O1     -1.920613    2.383680  -15.995321 O    2032 MOH    -0.6497 ****
12499 HO1    -1.478363    3.170783  -16.320590 H    2032 MOH     0.4215 ****
12500 HC1     5.399611   13.770950   -8.861321 H    2033 MOH     0.0372 ****
12501 C1      5.981580   14.013449   -9.750861 C    2033 MOH     0.1166 ****
12502 HC2     5.945207   13.191645  -10.465746 H    2033 MOH     0.0372 ****
12503 HC3     7.008686   14.156744   -9.413571 H    2033 MOH     0.0372 ****
12504 O1      5.515658   15.257790  -10.282605 O    2033 MOH    -0.6497 ****
12505 HO1     5.931350   15.935074   -9.744497 H    2033 MOH     0.4215 ****
12506 HC1     2.893911    9.204692  -11.189823 H    2034 MOH     0.0372 ****
12507 C1      3.056723    8.980564  -10.135527 C    2034 MOH     0.1166 ****
12508 HC2     3.624259    8.053841  -10.043603 H    2034 MOH     0.0372 ****
12509 HC3     2.072918    8.862989   -9.681565 H    2034 MOH     0.0372 ****
12510 O1      3.749544   10.057115   -9.543679 O    2034 MOH    -0.6497 ****
12511 HO1     4.587856   10.147746  -10.001884 H    2034 MOH     0.4215 ****
12512 HC1     0.829306    3.138531   -6.430288 H    2035 MOH     0.0372 ****
12513 C1      0.436130    3.573316   -5.511756 C    2035 MOH     0.1166 ****
12514 HC2     0.251956    4.638027   -5.653177 H    2035 MOH     0.0372 ****
12515 HC3     1.135302    3.429204   -4.687977 H    2035 MOH     0.0372 ****
12516 O1     -0.728385    2.912362   -5.182951 O    2035 MOH    -0.6497 ****
12517 HO1    -1.152738    3.361843   -4.448267 H    2035 MOH     0.4215 ****
12518 HC1     2.616205    9.099773  -20.525754 H    2036 MOH     0.0372 ****
12519 C1      2.482837    8.077111  -20.878601 C    2036 MOH     0.1166 ****
12520 HC2     1.484021    7.999543  -21.307107 H    2036 MOH     0.0372 ****
12521 HC3     2.556161    7.360227  -20.061185 H    2036 MOH     0.0372 ****
12522 O1      3.403134    7.799910  -21.890470 O    2036 MOH    -0.6497 ****
12523 HO1     3.519181    6.851958  -21.982394 H    2036 MOH     0.4215 ****
12524 HC1     4.803208   -0.174812  -21.568030 H    2037 MOH     0.0372 ****
12525 C1      4.066509    0.170974  -20.843245 C    2037 MOH     0.1166 ****
12526 HC2     3.795732   -0.636949  -20.162301 H    2037 MOH     0.0372 ****
12527 HC3     3.157760    0.470628  -21.363676 H    2037 MOH     0.0372 ****
12528 O1      4.506450    1.252424  -20.049164 O    2037 MOH    -0.6497 ****
12529 HO1     5.453882    1.183838  -19.913400 H    2037 MOH     0.4215 ****
12530 HC1     5.751795   16.380473  -21.215890 H    2038 MOH     0.0372 ****
12531 C1      4.904244   15.715844  -21.046185 C    2038 MOH     0.1166 ****
12532 HC2     4.038796   16.359652  -20.889914 H    2038 MOH     0.0372 ****
12533 HC3     5.136916   15.114086  -20.167958 H    2038 MOH     0.0372 ****
12534 O1      4.770876   15.014066  -22.261701 O    2038 MOH    -0.6497 ****
12535 HO1     5.616695   14.608267  -22.466762 H    2038 MOH     0.4215 ****
12536 HC1    16.702974    2.766617  -11.235078 H    2039 MOH     0.0372 ****
12537 C1     17.086912    3.363476  -12.062393 C    2039 MOH     0.1166 ****
12538 HC2    17.774536    2.746205  -12.640806 H    2039 MOH     0.0372 ****
12539 HC3    17.588052    4.225288  -11.620451 H    2039 MOH     0.0372 ****
12540 O1     16.021701    3.803159  -12.849403 O    2039 MOH    -0.6497 ****
12541 HO1    15.492271    3.047084  -13.111032 H    2039 MOH     0.4215 ****
12542 HC1    -4.881843   11.070387  -15.117095 H    2040 MOH     0.0372 ****
12543 C1     -5.048120   12.140814  -14.998301 C    2040 MOH     0.1166 ****
12544 HC2    -4.694781   12.461697  -14.018251 H    2040 MOH     0.0372 ****
12545 HC3    -6.115063   12.353920  -15.070426 H    2040 MOH     0.0372 ****
12546 O1     -4.361073   12.855249  -16.008049 O    2040 MOH    -0.6497 ****
12547 HO1    -4.451717   12.325342  -16.802837 H    2040 MOH     0.4215 ****
12548 HC1     1.781357   17.386396  -17.966028 H    2041 MOH     0.0372 ****
12549 C1      2.652578   16.731158  -17.985120 C    2041 MOH     0.1166 ****
12550 HC2     2.652001   16.159610  -18.912844 H    2041 MOH     0.0372 ****
12551 HC3     2.624865   16.022031  -17.157098 H    2041 MOH     0.0372 ****
12552 O1      3.830950   17.515811  -17.911581 O    2041 MOH    -0.6497 ****
12553 HO1     3.801505   18.026530  -17.099115 H    2041 MOH     0.4215 ****
12554 HC1    16.595010    8.223264  -12.499385 H    2042 MOH     0.0372 ****
12555 C1     17.235291    7.347979  -12.390491 C    2042 MOH     0.1166 ****
12556 HC2    17.085180    6.947079  -11.387813 H    2042 MOH     0.0372 ****
12557 HC3    18.273944    7.660697  -12.496557 H    2042 MOH     0.0372 ****
12558 O1     16.855972    6.406150  -13.393875 O    2042 MOH    -0.6497 ****
12559 HO1    16.784958    5.532907  -13.001431 H    2042 MOH     0.4215 ****
12560 HC1    -2.403855   10.621314  -15.440949 H    2043 MOH     0.0372 ****
12561 C1     -2.136542    9.616615  -15.112145 C    2043 MOH     0.1166 ****
12562 HC2    -1.191997    9.327167  -15.572471 H    2043 MOH     0.0372 ****
12563 HC3    -2.899222    8.902997  -15.421858 H    2043 MOH     0.0372 ****
12564 O1     -1.969111    9.624372  -13.683082 O    2043 MOH    -0.6497 ****
12565 HO1    -2.797608    9.812166  -13.236191 H    2043 MOH     0.4215 ****
12566 HC1    14.730746   10.436786   -8.078553 H    2044 MOH     0.0372 ****
12567 C1     15.589266   10.798494   -8.644239 C    2044 MOH     0.1166 ****
12568 HC2    15.241123   11.317786   -9.536608 H    2044 MOH     0.0372 ****
12569 HC3    16.218577    9.957911   -8.937688 H    2044 MOH     0.0372 ****
12570 O1     16.338666   11.688067   -7.848744 O    2044 MOH    -0.6497 ****
12571 HO1    16.506098   11.269612   -7.000923 H    2044 MOH     0.4215 ****
12572 HC1    15.529799   11.757877  -18.010575 H    2045 MOH     0.0372 ****
12573 C1     15.082930   12.171841  -18.914258 C    2045 MOH     0.1166 ****
12574 HC2    14.055246   12.490683  -18.742431 H    2045 MOH     0.0372 ****
12575 HC3    15.113529   11.399435  -19.683590 H    2045 MOH     0.0372 ****
12576 O1     15.893529   13.236144  -19.302459 O    2045 MOH    -0.6497 ****
12577 HO1    16.075395   13.782381  -18.534541 H    2045 MOH     0.4215 ****
12578 HC1     8.755748    9.505571  -23.416407 H    2046 MOH     0.0372 ****
12579 C1      7.831410   10.020781  -23.678036 C    2046 MOH     0.1166 ****
12580 HC2     7.118383    9.973832  -22.854257 H    2046 MOH     0.0372 ****
12581 HC3     7.395511    9.574565  -24.571112 H    2046 MOH     0.0372 ****
12582 O1      8.069279   11.370041  -23.957343 O    2046 MOH    -0.6497 ****
12583 HO1     8.573883   11.400252  -24.773345 H    2046 MOH     0.4215 ****
12584 HC1    -0.984728   -0.714108  -22.876884 H    2047 MOH     0.0372 ****
12585 C1     -0.470887   -0.405064  -21.966838 C    2047 MOH     0.1166 ****
12586 HC2     0.612222   -0.431192  -22.082803 H    2047 MOH     0.0372 ****
12587 HC3    -0.773996   -1.044381  -21.136694 H    2047 MOH     0.0372 ****
12588 O1     -0.910250    0.852341  -21.683995 O    2047 MOH    -0.6497 ****
12589 HO1    -1.242227    1.214457  -22.509189 H    2047 MOH     0.4215 ****
12590 HC1     7.312372   14.584997   -2.777374 H    2048 MOH     0.0372 ****
12591 C1      7.750004   13.681543   -3.202345 C    2048 MOH     0.1166 ****
12592 HC2     7.993645   13.876686   -4.246035 H    2048 MOH     0.0372 ****
12593 HC3     7.044482   12.855249   -3.109007 H    2048 MOH     0.0372 ****
12594 O1      8.886229   13.383930   -2.454933 O    2048 MOH    -0.6497 ****
12595 HO1     9.513809   14.109796   -2.503017 H    2048 MOH     0.4215 ****
12596 HC1     0.475390   18.112670  -16.439384 H    2049 MOH     0.0372 ****
12597 C1      1.041771   18.417632  -15.559036 C    2049 MOH     0.1166 ****
12598 HC2     1.427441   17.523976  -15.067597 H    2049 MOH     0.0372 ****
12599 HC3     0.387633   18.941414  -14.862536 H    2049 MOH     0.0372 ****
12600 O1      2.136427   19.232087  -15.964208 O    2049 MOH    -0.6497 ****
12601 HO1     1.785398   20.107371  -16.140985 H    2049 MOH     0.4215 ****
12602 HC1    -7.608091    8.707854  -17.042546 H    2050 MOH     0.0372 ****
12603 C1     -7.049216    9.340231  -16.353117 C    2050 MOH     0.1166 ****
12604 HC2    -7.004182   10.340847  -16.783745 H    2050 MOH     0.0372 ****
12605 HC3    -6.035966    8.945863  -16.272507 H    2050 MOH     0.0372 ****
12606 O1     -7.714323    9.352478  -15.064769 O    2050 MOH    -0.6497 ****
12607 HO1    -7.247247    8.734390  -14.499083 H    2050 MOH     0.4215 ****
12608 HC1     0.866834    2.494724  -19.143360 H    2051 MOH     0.0372 ****
12609 C1     -0.015357    3.078110  -18.882438 C    2051 MOH     0.1166 ****
12610 HC2     0.288906    4.076686  -18.571311 H    2051 MOH     0.0372 ****
12611 HC3    -0.550561    2.588212  -18.069265 H    2051 MOH     0.0372 ****
12612 O1     -0.836349    3.133224  -20.049871 O    2051 MOH    -0.6497 ****
12613 HO1    -0.926993    2.244467  -20.402718 H    2051 MOH     0.4215 ****
12614 HC1     8.403564   -6.497762  -13.692274 H    2052 MOH     0.0372 ****
12615 C1      9.241299   -6.269551  -14.352005 C    2052 MOH     0.1166 ****
12616 HC2     9.598679   -5.268118  -14.116538 H    2052 MOH     0.0372 ****
12617 HC3     8.890848   -6.314458  -15.382966 H    2052 MOH     0.0372 ****
12618 O1     10.322099   -7.211380  -14.147651 O    2052 MOH    -0.6497 ****
12619 HO1    11.155216   -6.823135  -14.425544 H    2052 MOH     0.4215 ****
12620 HC1     2.597153    4.357561  -14.076940 H    2053 MOH     0.0372 ****
12621 C1      2.285383    5.401043  -14.112296 C    2053 MOH     0.1166 ****
12622 HC2     3.091364    6.058323  -13.784198 H    2053 MOH     0.0372 ****
12623 HC3     1.442452    5.524334  -13.433473 H    2053 MOH     0.0372 ****
12624 O1      1.832163    5.747238  -15.406301 O    2053 MOH    -0.6497 ****
12625 HO1     1.620853    6.682943  -15.376603 H    2053 MOH     0.4215 ****
12626 HC1     9.293261   12.371066   -6.579487 H    2054 MOH     0.0372 ****
12627 C1     10.218753   12.670721   -6.085927 C    2054 MOH     0.1166 ****
12628 HC2    10.662736   11.816665   -5.573981 H    2054 MOH     0.0372 ****
12629 HC3     9.972802   13.422714   -5.336393 H    2054 MOH     0.0372 ****
12630 O1     11.100945   13.170008   -7.111939 O    2054 MOH    -0.6497 ****
12631 HO1    10.910419   14.108163   -7.186892 H    2054 MOH     0.4215 ****
12632 HC1    -1.677549    3.528408  -13.260232 H    2055 MOH     0.0372 ****
12633 C1     -0.906209    3.235286  -12.547468 C    2055 MOH     0.1166 ****
12634 HC2    -0.008429    2.978906  -13.110325 H    2055 MOH     0.0372 ****
12635 HC3    -1.236453    2.346938  -12.008653 H    2055 MOH     0.0372 ****
12636 O1     -0.645824    4.312653  -11.638836 O    2055 MOH    -0.6497 ****
12637 HO1    -1.312086    4.287750  -10.947993 H    2055 MOH     0.4215 ****
12638 HC1    -1.806875    4.139148   -7.377104 H    2056 MOH     0.0372 ****
12639 C1     -1.323633    3.988504   -8.342304 C    2056 MOH     0.1166 ****
12640 HC2    -0.868104    2.998910   -8.362103 H    2056 MOH     0.0372 ****
12641 HC3    -0.563263    4.757644   -8.480897 H    2056 MOH     0.0372 ****
12642 O1     -2.354781    4.037902   -9.328718 O    2056 MOH    -0.6497 ****
12643 HO1    -2.867468    4.838885   -9.198611 H    2056 MOH     0.4215 ****
12644 HC1    -6.106980    5.566792  -13.710659 H    2057 MOH     0.0372 ****
12645 C1     -5.519238    6.482493  -13.649141 C    2057 MOH     0.1166 ****
12646 HC2    -5.053316    6.693149  -14.612220 H    2057 MOH     0.0372 ****
12647 HC3    -4.730577    6.333890  -12.912336 H    2057 MOH     0.0372 ****
12648 O1     -6.300970    7.607217  -13.273667 O    2057 MOH    -0.6497 ****
12649 HO1    -6.701074    7.443101  -12.416654 H    2057 MOH     0.4215 ****
12650 HC1     7.710167   16.240035  -11.231543 H    2058 MOH     0.0372 ****
12651 C1      8.655866   16.582964  -10.811521 C    2058 MOH     0.1166 ****
12652 HC2     8.542128   17.557453  -10.335638 H    2058 MOH     0.0372 ****
12653 HC3     9.385637   16.696457  -11.613380 H    2058 MOH     0.0372 ****
12654 O1      9.097539   15.660731   -9.839249 O    2058 MOH    -0.6497 ****
12655 HO1     9.928924   15.272487  -10.121385 H    2058 MOH     0.4215 ****
12656 HC1     7.628183    8.174274  -16.160784 H    2059 MOH     0.0372 ****
12657 C1      8.409915    8.847475  -16.512216 C    2059 MOH     0.1166 ****
12658 HC2     8.969368    8.412691  -17.340238 H    2059 MOH     0.0372 ****
12659 HC3     9.095230    9.052416  -15.690558 H    2059 MOH     0.0372 ****
12660 O1      7.836029   10.046909  -16.957693 O    2059 MOH    -0.6497 ****
12661 HO1     8.031173   10.690308  -16.271800 H    2059 MOH     0.4215 ****
12662 HC1     7.026468   20.374202  -11.797935 H    2060 MOH     0.0372 ****
12663 C1      6.225684   19.980243  -11.172146 C    2060 MOH     0.1166 ****
12664 HC2     5.659880   19.249887  -11.751266 H    2060 MOH     0.0372 ****
12665 HC3     5.553070   20.757139  -10.810814 H    2060 MOH     0.0372 ****
12666 O1      6.722782   19.239272  -10.127749 O    2060 MOH    -0.6497 ****
12667 HO1     7.267223   19.835315   -9.608733 H    2060 MOH     0.4215 ****
12668 HC1    19.135813   21.613236   -7.291544 H    2061 MOH     0.0372 ****
12669 C1     19.197012   22.392990   -6.533525 C    2061 MOH     0.1166 ****
12670 HC2    19.557279   21.947183   -5.605801 H    2061 MOH     0.0372 ****
12671 HC3    18.203970   22.818385   -6.387861 H    2061 MOH     0.0372 ****
12672 O1     20.068234   23.415652   -6.961325 O    2061 MOH    -0.6497 ****
12673 HO1    20.955044   23.055577   -7.027793 H    2061 MOH     0.4215 ****
12674 HC1    18.757071   15.508699  -20.704652 H    2062 MOH     0.0372 ****
12675 C1     18.570010   14.522780  -20.279681 C    2062 MOH     0.1166 ****
12676 HC2    18.177989   14.617493  -19.267104 H    2062 MOH     0.0372 ****
12677 HC3    19.527256   14.006346  -20.211092 H    2062 MOH     0.0372 ****
12678 O1     17.728810   13.718939  -21.128916 O    2062 MOH    -0.6497 ****
12679 HO1    17.012896   13.372744  -20.591515 H    2062 MOH     0.4215 ****
12680 HC1    21.387479   15.980634  -14.067748 H    2063 MOH     0.0372 ****
12681 C1     20.538774   16.415419  -13.539539 C    2063 MOH     0.1166 ****
12682 HC2    20.402519   17.442571  -13.877536 H    2063 MOH     0.0372 ****
12683 HC3    20.703319   16.403171  -12.461908 H    2063 MOH     0.0372 ****
12684 O1     19.373104   15.717314  -13.873294 O    2063 MOH    -0.6497 ****
12685 HO1    19.400239   14.916739  -13.343671 H    2063 MOH     0.4215 ****
12686 HC1    13.577662   29.463851  -11.220229 H    2064 MOH     0.0372 ****
12687 C1     14.181570   30.015394  -10.499687 C    2064 MOH     0.1166 ****
12688 HC2    14.993325   29.380160  -10.146134 H    2064 MOH     0.0372 ****
12689 HC3    13.533206   30.301168   -9.670958 H    2064 MOH     0.0372 ****
12690 O1     14.686174   31.139302  -11.155175 O    2064 MOH    -0.6497 ****
12691 HO1    15.499084   31.400989  -10.716062 H    2064 MOH     0.4215 ****
12692 HC1    11.639497   24.142334   -6.835460 H    2065 MOH     0.0372 ****
12693 C1     10.619319   23.849620   -6.587265 C    2065 MOH     0.1166 ****
12694 HC2    10.458238   23.907183   -5.511756 H    2065 MOH     0.0372 ****
12695 HC3    10.410896   22.827366   -6.904049 H    2065 MOH     0.0372 ****
12696 O1      9.733086   24.742051   -7.188306 O    2065 MOH    -0.6497 ****
12697 HO1    10.184574   25.118456   -7.947739 H    2065 MOH     0.4215 ****
12698 HC1     6.238385   26.929037  -10.631209 H    2066 MOH     0.0372 ****
12699 C1      7.278770   26.956390  -10.957185 C    2066 MOH     0.1166 ****
12700 HC2     7.863049   26.316665  -10.294626 H    2066 MOH     0.0372 ****
12701 HC3     7.619984   27.990074  -10.903445 H    2066 MOH     0.0372 ****
12702 O1      7.345743   26.474248  -12.280182 O    2066 MOH    -0.6497 ****
12703 HO1     6.751072   25.721439  -12.324023 H    2066 MOH     0.4215 ****
12704 HC1     9.118786   22.246837  -14.791118 H    2067 MOH     0.0372 ****
12705 C1     10.033309   22.553024  -15.298821 C    2067 MOH     0.1166 ****
12706 HC2    10.628557   23.207446  -14.661718 H    2067 MOH     0.0372 ****
12707 HC3     9.757913   23.099260  -16.201089 H    2067 MOH     0.0372 ****
12708 O1     10.735367   21.413603  -15.696922 O    2067 MOH    -0.6497 ****
12709 HO1    11.670097   21.612419  -15.607119 H    2067 MOH     0.4215 ****
12710 HC1    22.385140   18.066375  -18.224829 H    2068 MOH     0.0372 ****
12711 C1     22.432483   18.789791  -17.410242 C    2068 MOH     0.1166 ****
12712 HC2    21.639204   19.517289  -17.581362 H    2068 MOH     0.0372 ****
12713 HC3    23.393194   19.303367  -17.456911 H    2068 MOH     0.0372 ****
12714 O1     22.247154   18.148024  -16.116236 O    2068 MOH    -0.6497 ****
12715 HO1    22.055473   18.823675  -15.460748 H    2068 MOH     0.4215 ****
12716 HC1     6.064603   21.909216  -19.646821 H    2069 MOH     0.0372 ****
12717 C1      6.107327   22.150899  -18.584746 C    2069 MOH     0.1166 ****
12718 HC2     7.144248   22.088845  -18.253820 H    2069 MOH     0.0372 ****
12719 HC3     5.509769   21.449120  -18.002797 H    2069 MOH     0.0372 ****
12720 O1      5.673737   23.444638  -18.315339 O    2069 MOH    -0.6497 ****
12721 HO1     4.904129   23.636106  -18.856275 H    2069 MOH     0.4215 ****
12722 HC1     3.461330   25.846771  -11.931579 H    2070 MOH     0.0372 ****
12723 C1      3.026586   24.961280  -11.468424 C    2070 MOH     0.1166 ****
12724 HC2     2.614358   24.286446  -12.218664 H    2070 MOH     0.0372 ****
12725 HC3     2.204439   25.247462  -10.811521 H    2070 MOH     0.0372 ****
12726 O1      3.931871   24.258685  -10.672928 O    2070 MOH    -0.6497 ****
12727 HO1     3.405327   23.540984  -10.312304 H    2070 MOH     0.4215 ****
12728 HC1    17.124902   20.751016   -5.212650 H    2071 MOH     0.0372 ****
12729 C1     17.424547   19.703859   -5.227499 C    2071 MOH     0.1166 ****
12730 HC2    18.058477   19.515248   -6.094412 H    2071 MOH     0.0372 ****
12731 HC3    16.556789   19.049845   -5.306695 H    2071 MOH     0.0372 ****
12732 O1     18.129491   19.392774   -4.033903 O    2071 MOH    -0.6497 ****
12733 HO1    18.563659   18.544434   -4.152697 H    2071 MOH     0.4215 ****
12734 HC1     9.373975   24.018635  -19.260033 H    2072 MOH     0.0372 ****
12735 C1      8.833575   24.888204  -19.633386 C    2072 MOH     0.1166 ****
12736 HC2     8.390170   24.558747  -20.573130 H    2072 MOH     0.0372 ****
12737 HC3     9.556417   25.691228  -19.779757 H    2072 MOH     0.0372 ****
12738 O1      7.842264   25.226642  -18.639901 O    2072 MOH    -0.6497 ****
12739 HO1     7.206602   24.512615  -18.557169 H    2072 MOH     0.4215 ****
12740 HC1     7.817438   17.246612  -23.569142 H    2073 MOH     0.0372 ****
12741 C1      8.230244   18.254169  -23.605911 C    2073 MOH     0.1166 ****
12742 HC2     8.144796   18.724879  -22.626569 H    2073 MOH     0.0372 ****
12743 HC3     7.653471   18.842046  -24.320089 H    2073 MOH     0.0372 ****
12744 O1      9.569696   18.198647  -24.037247 O    2073 MOH    -0.6497 ****
12745 HO1     9.603183   17.538101  -24.733040 H    2073 MOH     0.4215 ****
12746 HC1    23.930707   15.403371  -17.620252 H    2074 MOH     0.0372 ****
12747 C1     23.250588   14.834681  -16.985978 C    2074 MOH     0.1166 ****
12748 HC2    23.605081   14.871832  -15.955723 H    2074 MOH     0.0372 ****
12749 HC3    23.195740   13.798139  -17.317611 H    2074 MOH     0.0372 ****
12750 O1     22.017945   15.457668  -17.068002 O    2074 MOH    -0.6497 ****
12751 HO1    22.120136   16.350507  -16.732126 H    2074 MOH     0.4215 ****
12752 HC1    17.798670   21.866758  -12.636564 H    2075 MOH     0.0372 ****
12753 C1     17.658374   21.712440  -13.705709 C    2075 MOH     0.1166 ****
12754 HC2    17.462074   22.666925  -14.195027 H    2075 MOH     0.0372 ****
12755 HC3    16.824102   21.033523  -13.881779 H    2075 MOH     0.0372 ****
12756 O1     18.833859   21.158039  -14.257253 O    2075 MOH    -0.6497 ****
12757 HO1    19.480491   21.057202  -13.555096 H    2075 MOH     0.4215 ****
12758 HC1    15.254864   21.660593  -20.005324 H    2076 MOH     0.0372 ****
12759 C1     15.093784   20.647729  -19.636921 C    2076 MOH     0.1166 ****
12760 HC2    14.342651   20.692636  -18.849204 H    2076 MOH     0.0372 ****
12761 HC3    16.018699   20.247237  -19.221849 H    2076 MOH     0.0372 ****
12762 O1     14.642296   19.801022  -20.693339 O    2076 MOH    -0.6497 ****
12763 HO1    15.047018   18.942884  -20.543432 H    2076 MOH     0.4215 ****
12764 HC1    24.260374   15.777735  -12.391198 H    2077 MOH     0.0372 ****
12765 C1     24.094097   15.864692  -11.317102 C    2077 MOH     0.1166 ****
12766 HC2    24.166266   16.920830  -11.057594 H    2077 MOH     0.0372 ****
12767 HC3    24.881025   15.310699  -10.804450 H    2077 MOH     0.0372 ****
12768 O1     22.768501   15.345808  -11.083050 O    2077 MOH    -0.6497 ****
12769 HO1    22.457309   15.694452  -10.244422 H    2077 MOH     0.4215 ****
12770 HC1     7.633841   24.347683   -9.192247 H    2078 MOH     0.0372 ****
12771 C1      7.242397   23.578543   -9.856927 C    2078 MOH     0.1166 ****
12772 HC2     7.741805   23.612428  -10.824956 H    2078 MOH     0.0372 ****
12773 HC3     6.170835   23.741026   -9.981378 H    2078 MOH     0.0372 ****
12774 O1      7.383271   22.311749   -9.272150 O    2078 MOH    -0.6497 ****
12775 HO1     6.936979   22.311341   -8.422915 H    2078 MOH     0.4215 ****
12776 HC1    23.853919   21.915748  -13.572773 H    2079 MOH     0.0372 ****
12777 C1     23.837176   20.908599  -13.990673 C    2079 MOH     0.1166 ****
12778 HC2    24.338894   20.250095  -13.282859 H    2079 MOH     0.0372 ****
12779 HC3    24.388546   20.880022  -14.931125 H    2079 MOH     0.0372 ****
12780 O1     22.494259   20.472998  -14.139873 O    2079 MOH    -0.6497 ****
12781 HO1    22.002357   20.733869  -13.357106 H    2079 MOH     0.4215 ****
12782 HC1    17.988618   25.706742  -14.441100 H    2080 MOH     0.0372 ****
12783 C1     16.925139   25.907600  -14.572622 C    2080 MOH     0.1166 ****
12784 HC2    16.343170   24.986592  -14.545752 H    2080 MOH     0.0372 ****
12785 HC3    16.760017   26.378310  -15.542066 H    2080 MOH     0.0372 ****
12786 O1     16.474806   26.797989  -13.593279 O    2080 MOH    -0.6497 ****
12787 HO1    16.585079   27.692461  -13.923498 H    2080 MOH     0.4215 ****
12788 HC1    17.469003   17.378476  -12.034109 H    2081 MOH     0.0372 ****
12789 C1     17.283096   17.964313  -12.934256 C    2081 MOH     0.1166 ****
12790 HC2    17.300994   17.340509  -13.828039 H    2081 MOH     0.0372 ****
12791 HC3    18.030765   18.749782  -13.043150 H    2081 MOH     0.0372 ****
12792 O1     16.040638   18.552599  -12.804855 O    2081 MOH    -0.6497 ****
12793 HO1    15.742148   18.663234  -13.710659 H    2081 MOH     0.4215 ****
12794 HC1    18.653725   20.953507  -10.614946 H    2082 MOH     0.0372 ****
12795 C1     19.407745   20.199880  -10.842634 C    2082 MOH     0.1166 ****
12796 HC2    18.921616   19.310307  -11.242149 H    2082 MOH     0.0372 ****
12797 HC3    19.896761   19.910432   -9.912788 H    2082 MOH     0.0372 ****
12798 O1     20.341898   20.742034  -11.787329 O    2082 MOH    -0.6497 ****
12799 HO1    20.558404   21.639772  -11.527820 H    2082 MOH     0.4215 ****
12800 HC1    14.590334   14.323963  -13.349327 H    2083 MOH     0.0372 ****
12801 C1     14.183302   15.324579  -13.494284 C    2083 MOH     0.1166 ****
12802 HC2    13.137721   15.278855  -13.799754 H    2083 MOH     0.0372 ****
12803 HC3    14.739868   15.782226  -14.310993 H    2083 MOH     0.0372 ****
12804 O1     14.338032   16.148424  -12.337458 O    2083 MOH    -0.6497 ****
12805 HO1    14.620934   17.028608  -12.597673 H    2083 MOH     0.4215 ****
12806 HC1    13.996241   18.729370  -11.126891 H    2084 MOH     0.0372 ****
12807 C1     14.084575   19.715290  -10.670807 C    2084 MOH     0.1166 ****
12808 HC2    13.483554   19.747133   -9.762882 H    2084 MOH     0.0372 ****
12809 HC3    13.732392   20.450545  -11.394177 H    2084 MOH     0.0372 ****
12810 O1     15.424605   19.919006  -10.363216 O    2084 MOH    -0.6497 ****
12811 HO1    15.909580   19.452378  -11.046988 H    2084 MOH     0.4215 ****
12812 HC1    15.959809   13.892036  -10.313011 H    2085 MOH     0.0372 ****
12813 C1     17.035990   13.900201  -10.482717 C    2085 MOH     0.1166 ****
12814 HC2    17.456301   14.760380   -9.962993 H    2085 MOH     0.0372 ****
12815 HC3    17.239795   13.960622  -11.551862 H    2085 MOH     0.0372 ****
12816 O1     17.629506   12.755473   -9.982085 O    2085 MOH    -0.6497 ****
12817 HO1    17.167626   12.494194   -9.183054 H    2085 MOH     0.4215 ****
12818 HC1    11.775174   25.545483  -13.443373 H    2086 MOH     0.0372 ****
12819 C1     12.806899   25.261751  -13.649141 C    2086 MOH     0.1166 ****
12820 HC2    13.077677   24.435865  -12.992239 H    2086 MOH     0.0372 ****
12821 HC3    13.455264   26.112540  -13.438423 H    2086 MOH     0.0372 ****
12822 O1     12.944886   24.942501  -15.011028 O    2086 MOH    -0.6497 ****
12823 HO1    12.648128   25.735319  -15.463577 H    2086 MOH     0.4215 ****
12824 HC1    23.400699   20.983309   -5.800255 H    2087 MOH     0.0372 ****
12825 C1     23.475755   22.025159   -6.109968 C    2087 MOH     0.1166 ****
12826 HC2    24.514408   22.249695   -6.353213 H    2087 MOH     0.0372 ****
12827 HC3    23.113756   22.626508   -5.274875 H    2087 MOH     0.0372 ****
12828 O1     22.587790   22.182742   -7.186185 O    2087 MOH    -0.6497 ****
12829 HO1    22.954985   21.662226   -7.903898 H    2087 MOH     0.4215 ****
12830 HC1    13.125597   17.070657   -5.251541 H    2088 MOH     0.0372 ****
12831 C1     14.118062   17.091478   -5.701968 C    2088 MOH     0.1166 ****
12832 HC2    14.641141   18.002688   -5.412054 H    2088 MOH     0.0372 ****
12833 HC3    14.058017   17.035956   -6.788084 H    2088 MOH     0.0372 ****
12834 O1     14.853029   16.026766   -5.253662 O    2088 MOH    -0.6497 ****
12835 HO1    14.406159   15.230682   -5.549233 H    2088 MOH     0.4215 ****
12836 HC1    11.065611   29.300143  -12.246241 H    2089 MOH     0.0372 ****
12837 C1     10.826010   28.667358  -11.392056 C    2089 MOH     0.1166 ****
12838 HC2     9.780429   28.791874  -11.111335 H    2089 MOH     0.0372 ****
12839 HC3    11.458209   28.974769  -10.558377 H    2089 MOH     0.0372 ****
12840 O1     11.127965   27.317281  -11.708133 O    2089 MOH    -0.6497 ****
12841 HO1    10.665507   27.044163  -12.503628 H    2089 MOH     0.4215 ****
12842 HC1    20.300906   17.673640   -9.725405 H    2090 MOH     0.0372 ****
12843 C1     20.552053   17.153123   -8.801217 C    2090 MOH     0.1166 ****
12844 HC2    19.885214   16.299476   -8.680301 H    2090 MOH     0.0372 ****
12845 HC3    20.429077   17.823059   -7.950567 H    2090 MOH     0.0372 ****
12846 O1     21.892083   16.722421   -8.898090 O    2090 MOH    -0.6497 ****
12847 HO1    22.082031   16.166796   -8.139365 H    2090 MOH     0.4215 ****
12848 HC1    11.827136   23.901876  -10.504637 H    2091 MOH     0.0372 ****
12849 C1     10.817350   24.301143  -10.412713 C    2091 MOH     0.1166 ****
12850 HC2    10.204782   23.559764   -9.899354 H    2091 MOH     0.0372 ****
12851 HC3    10.416092   24.493019  -11.408319 H    2091 MOH     0.0372 ****
12852 O1     10.885478   25.489962   -9.650452 O    2091 MOH    -0.6497 ****
12853 HO1    11.219763   26.183167  -10.224623 H    2091 MOH     0.4215 ****
12854 HC1    24.285200   17.245796  -14.781219 H    2092 MOH     0.0372 ****
12855 C1     25.156422   17.749166  -15.200533 C    2092 MOH     0.1166 ****
12856 HC2    24.858509   18.698343  -15.643889 H    2092 MOH     0.0372 ****
12857 HC3    25.595208   17.137610  -15.989664 H    2092 MOH     0.0372 ****
12858 O1     26.125215   18.024325  -14.214826 O    2092 MOH    -0.6497 ****
12859 HO1    26.555341   17.186191  -14.031685 H    2092 MOH     0.4215 ****
12860 HC1     7.570910   31.138077  -12.080778 H    2093 MOH     0.0372 ****
12861 C1      8.433471   31.601030  -12.560196 C    2093 MOH     0.1166 ****
12862 HC2     9.220399   31.715748  -11.814199 H    2093 MOH     0.0372 ****
12863 HC3     8.116506   32.593074  -12.882637 H    2093 MOH     0.0372 ****
12864 O1      8.816254   30.813519  -13.719144 O    2093 MOH    -0.6497 ****
12865 HO1     8.122279   30.859651  -14.380289 H    2093 MOH     0.4215 ****
12866 HC1    14.257203   26.575494   -5.820055 H    2094 MOH     0.0372 ****
12867 C1     14.865153   27.446288   -6.068249 C    2094 MOH     0.1166 ****
12868 HC2    15.914776   27.176844   -6.182800 H    2094 MOH     0.0372 ****
12869 HC3    14.808573   28.168479   -5.252955 H    2094 MOH     0.0372 ****
12870 O1     14.470245   28.008445   -7.278109 O    2094 MOH    -0.6497 ****
12871 HO1    14.751992   27.409953   -7.973902 H    2094 MOH     0.4215 ****
12872 HC1    13.316700   18.831432  -15.618433 H    2095 MOH     0.0372 ****
12873 C1     14.173487   18.573419  -16.242101 C    2095 MOH     0.1166 ****
12874 HC2    14.359394   19.366646  -16.965472 H    2095 MOH     0.0372 ****
12875 HC3    13.927536   17.669557  -16.799301 H    2095 MOH     0.0372 ****
12876 O1     15.336848   18.382767  -15.440949 O    2095 MOH    -0.6497 ****
12877 HO1    16.033133   18.034940  -16.002392 H    2095 MOH     0.4215 ****
12878 HC1    19.371372   18.491361  -16.435141 H    2096 MOH     0.0372 ****
12879 C1     18.873119   17.715690  -17.014969 C    2096 MOH     0.1166 ****
12880 HC2    19.600003   16.970228  -17.337410 H    2096 MOH     0.0372 ****
12881 HC3    18.410661   18.189666  -17.881175 H    2096 MOH     0.0372 ****
12882 O1     17.897974   17.084946  -16.218060 O    2096 MOH    -0.6497 ****
12883 HO1    18.369669   16.715889  -15.468526 H    2096 MOH     0.4215 ****
12884 HC1    22.711920   24.543234   -9.248108 H    2097 MOH     0.0372 ****
12885 C1     22.089537   25.437706   -9.257301 C    2097 MOH     0.1166 ****
12886 HC2    22.533519   26.224809   -8.647774 H    2097 MOH     0.0372 ****
12887 HC3    21.117856   25.159689   -8.847886 H    2097 MOH     0.0372 ****
12888 O1     21.909981   25.890453  -10.578883 O    2097 MOH    -0.6497 ****
12889 HO1    22.767346   26.166021  -10.911930 H    2097 MOH     0.4215 ****
12890 HC1    18.340802   24.722863  -11.407612 H    2098 MOH     0.0372 ****
12891 C1     18.794599   25.602230  -10.950821 C    2098 MOH     0.1166 ****
12892 HC2    19.631757   25.919031  -11.573075 H    2098 MOH     0.0372 ****
12893 HC3    19.098285   25.353199   -9.934002 H    2098 MOH     0.0372 ****
12894 O1     17.844280   26.599989  -10.986177 O    2098 MOH    -0.6497 ****
12895 HO1    17.516345   26.655511  -11.887031 H    2098 MOH     0.4215 ****
12896 HC1    21.963097   20.782451   -9.564892 H    2099 MOH     0.0372 ****
12897 C1     22.785821   20.091695   -9.750154 C    2099 MOH     0.1166 ****
12898 HC2    23.061217   20.212944  -10.797379 H    2099 MOH     0.0372 ****
12899 HC3    22.477516   19.051886   -9.643381 H    2099 MOH     0.0372 ****
12900 O1     23.875859   20.402372   -8.865563 O    2099 MOH    -0.6497 ****
12901 HO1    24.486695   19.661809   -8.852835 H    2099 MOH     0.4215 ****
12902 HC1    26.797251   21.740201  -10.629795 H    2100 MOH     0.0372 ****
12903 C1     25.965867   22.423609  -10.799500 C    2100 MOH     0.1166 ****
12904 HC2    25.043838   21.963513  -10.442411 H    2100 MOH     0.0372 ****
12905 HC3    25.895430   22.611811  -11.870767 H    2100 MOH     0.0372 ****
12906 O1     26.293802   23.644271  -10.147548 O    2100 MOH    -0.6497 ****
12907 HO1    26.906948   23.447087   -9.435491 H    2100 MOH     0.4215 ****
12908 HC1    19.303822   23.969645   -2.146635 H    2101 MOH     0.0372 ****
12909 C1     18.412393   24.596306   -2.178455 C    2101 MOH     0.1166 ****
12910 HC2    17.523851   23.965563   -2.218760 H    2101 MOH     0.0372 ****
12911 HC3    18.421631   25.214394   -3.076480 H    2101 MOH     0.0372 ****
12912 O1     18.422785   25.443830   -1.056983 O    2101 MOH    -0.6497 ****
12913 HO1    19.178537   26.023951   -1.173656 H    2101 MOH     0.4215 ****
12914 HC1    20.960817   25.231541   -3.560141 H    2102 MOH     0.0372 ****
12915 C1     21.185406   26.297477   -3.509937 C    2102 MOH     0.1166 ****
12916 HC2    20.826294   26.845346   -4.381092 H    2102 MOH     0.0372 ****
12917 HC3    22.271402   26.344017   -3.582061 H    2102 MOH     0.0372 ****
12918 O1     20.824562   26.895561   -2.243508 O    2102 MOH    -0.6497 ****
12919 HO1    20.752394   27.844330   -2.369373 H    2102 MOH     0.4215 ****
12920 HC1    20.047449   11.780576  -12.192501 H    2103 MOH     0.0372 ****
12921 C1     20.628841   12.537876  -11.665706 C    2103 MOH     0.1166 ****
12922 HC2    21.682505   12.293744  -11.802885 H    2103 MOH     0.0372 ****
12923 HC3    20.399055   12.548491  -10.600803 H    2103 MOH     0.0372 ****
12924 O1     20.500669   13.798139  -12.217957 O    2103 MOH    -0.6497 ****
12925 HO1    21.299144   14.274565  -11.976833 H    2103 MOH     0.4215 ****
12926 HC1    15.202903   23.137635   -7.110524 H    2104 MOH     0.0372 ****
12927 C1     15.548158   22.294602   -7.708030 C    2104 MOH     0.1166 ****
12928 HC2    16.288321   21.762655   -7.109110 H    2104 MOH     0.0372 ****
12929 HC3    15.989831   22.680397   -8.626561 H    2104 MOH     0.0372 ****
12930 O1     14.495649   21.376860   -8.041784 O    2104 MOH    -0.6497 ****
12931 HO1    14.774509   20.863692   -8.803338 H    2104 MOH     0.4215 ****
12932 HC1    20.267997   11.458060  -16.855163 H    2105 MOH     0.0372 ****
12933 C1     20.235088   12.543184  -16.954158 C    2105 MOH     0.1166 ****
12934 HC2    20.680225   13.012261  -16.076638 H    2105 MOH     0.0372 ****
12935 HC3    19.197589   12.868966  -17.029111 H    2105 MOH     0.0372 ****
12936 O1     20.920980   12.920405  -18.119470 O    2105 MOH    -0.6497 ****
12937 HO1    21.022594   13.873665  -18.079165 H    2105 MOH     0.4215 ****
12938 HC1    21.235636   24.838806  -13.687325 H    2106 MOH     0.0372 ****
12939 C1     21.899011   24.017002  -13.417917 C    2106 MOH     0.1166 ****
12940 HC2    22.915148   24.403205  -13.340135 H    2106 MOH     0.0372 ****
12941 HC3    21.885155   23.234390  -14.176642 H    2106 MOH     0.0372 ****
12942 O1     21.520847   23.589974  -12.130982 O    2106 MOH    -0.6497 ****
12943 HO1    21.574540   24.359114  -11.559640 H    2106 MOH     0.4215 ****
12944 HC1    15.721941   23.801855  -18.564947 H    2107 MOH     0.0372 ****
12945 C1     15.091474   23.488320  -17.733390 C    2107 MOH     0.1166 ****
12946 HC2    14.115175   23.175602  -18.103914 H    2107 MOH     0.0372 ****
12947 HC3    14.921156   24.315431  -17.043253 H    2107 MOH     0.0372 ****
12948 O1     15.693651   22.434223  -17.037596 O    2107 MOH    -0.6497 ****
12949 HO1    15.042977   22.079864  -16.428070 H    2107 MOH     0.4215 ****
12950 HC1     7.722175   18.466458  -15.368117 H    2108 MOH     0.0372 ****
12951 C1      8.365921   19.250703  -15.764804 C    2108 MOH     0.1166 ****
12952 HC2     8.399985   20.052094  -15.027292 H    2108 MOH     0.0372 ****
12953 HC3     7.966972   19.690795  -16.679800 H    2108 MOH     0.0372 ****
12954 O1      9.677661   18.786117  -15.995321 O    2108 MOH    -0.6497 ****
12955 HO1    10.119911   19.573219  -16.320590 H    2108 MOH     0.4215 ****
12956 HC1    16.997885   30.173386   -8.861321 H    2109 MOH     0.0372 ****
12957 C1     17.579854   30.415886   -9.750861 C    2109 MOH     0.1166 ****
12958 HC2    17.543481   29.594082  -10.465746 H    2109 MOH     0.0372 ****
12959 HC3    18.606960   30.559181   -9.413571 H    2109 MOH     0.0372 ****
12960 O1     17.113932   31.660226  -10.282605 O    2109 MOH    -0.6497 ****
12961 HO1    17.529624   32.337510   -9.744497 H    2109 MOH     0.4215 ****
12962 HC1    14.492185   25.607129  -11.189823 H    2110 MOH     0.0372 ****
12963 C1     14.654997   25.383001  -10.135527 C    2110 MOH     0.1166 ****
12964 HC2    15.222533   24.456277  -10.043603 H    2110 MOH     0.0372 ****
12965 HC3    13.671193   25.265425   -9.681565 H    2110 MOH     0.0372 ****
12966 O1     15.347818   26.459551   -9.543679 O    2110 MOH    -0.6497 ****
12967 HO1    16.186130   26.550183  -10.001884 H    2110 MOH     0.4215 ****
12968 HC1    16.401482   16.227624  -21.568030 H    2111 MOH     0.0372 ****
12969 C1     15.664783   16.573411  -20.843245 C    2111 MOH     0.1166 ****
12970 HC2    15.394006   15.765487  -20.162301 H    2111 MOH     0.0372 ****
12971 HC3    14.756034   16.873065  -21.363676 H    2111 MOH     0.0372 ****
12972 O1     16.104724   17.654860  -20.049164 O    2111 MOH    -0.6497 ****
12973 HO1    17.052156   17.586275  -19.913400 H    2111 MOH     0.4215 ****
12974 HC1    15.238699   13.976952  -15.805816 H    2112 MOH     0.0372 ****
12975 C1     16.273888   14.281097  -15.962087 C    2112 MOH     0.1166 ****
12976 HC2    16.862785   13.378460  -16.129671 H    2112 MOH     0.0372 ****
12977 HC3    16.646856   14.837947  -15.103659 H    2112 MOH     0.0372 ****
12978 O1     16.271578   15.012678  -17.138713 O    2112 MOH    -0.6497 ****
12979 HO1    16.908973   15.721805  -17.029111 H    2112 MOH     0.4215 ****
12980 HC1    28.301248   19.169053  -11.235078 H    2113 MOH     0.0372 ****
12981 C1     28.685186   19.765912  -12.062393 C    2113 MOH     0.1166 ****
12982 HC2    29.372811   19.148641  -12.640806 H    2113 MOH     0.0372 ****
12983 HC3    29.186326   20.627725  -11.620451 H    2113 MOH     0.0372 ****
12984 O1     27.619975   20.205596  -12.849403 O    2113 MOH    -0.6497 ****
12985 HO1    27.090545   19.449520  -13.111032 H    2113 MOH     0.4215 ****
12986 HC1    18.767463   28.165213   -6.634642 H    2114 MOH     0.0372 ****
12987 C1     18.830972   27.242163   -7.210934 C    2114 MOH     0.1166 ****
12988 HC2    19.862697   27.038039   -7.496605 H    2114 MOH     0.0372 ****
12989 HC3    18.213784   27.354023   -8.101888 H    2114 MOH     0.0372 ****
12990 O1     18.313089   26.188883   -6.445844 O    2114 MOH    -0.6497 ****
12991 HO1    18.563081   25.364221   -6.870108 H    2114 MOH     0.4215 ****
12992 HC1     6.716431   27.472824  -15.117095 H    2115 MOH     0.0372 ****
12993 C1      6.550154   28.543251  -14.998301 C    2115 MOH     0.1166 ****
12994 HC2     6.903493   28.864134  -14.018251 H    2115 MOH     0.0372 ****
12995 HC3     5.483211   28.756356  -15.070426 H    2115 MOH     0.0372 ****
12996 O1      7.237201   29.257685  -16.008049 O    2115 MOH    -0.6497 ****
12997 HO1     7.146557   28.727779  -16.802837 H    2115 MOH     0.4215 ****
12998 HC1     9.194419   27.023751  -15.440949 H    2116 MOH     0.0372 ****
12999 C1      9.461732   26.019051  -15.112145 C    2116 MOH     0.1166 ****
13000 HC2    10.406277   25.729603  -15.572471 H    2116 MOH     0.0372 ****
13001 HC3     8.699052   25.305433  -15.421858 H    2116 MOH     0.0372 ****
13002 O1      9.629163   26.026808  -13.683082 O    2116 MOH    -0.6497 ****
13003 HO1     8.800666   26.214602  -13.236191 H    2116 MOH     0.4215 ****
13004 HC1    12.075974   33.101343  -13.364177 H    2117 MOH     0.0372 ****
13005 C1     11.705315   32.704526  -12.419482 C    2117 MOH     0.1166 ****
13006 HC2    12.559793   32.581643  -11.754095 H    2117 MOH     0.0372 ****
13007 HC3    11.233620   31.728812  -12.535448 H    2117 MOH     0.0372 ****
13008 O1     10.850259   33.639822  -11.857332 O    2117 MOH    -0.6497 ****
13009 HO1    11.035011   33.641455  -10.915466 H    2117 MOH     0.4215 ****
13010 HC1    10.613546   15.688328  -22.876884 H    2118 MOH     0.0372 ****
13011 C1     11.127387   15.997372  -21.966838 C    2118 MOH     0.1166 ****
13012 HC2    12.210497   15.971245  -22.082803 H    2118 MOH     0.0372 ****
13013 HC3    10.824279   15.358056  -21.136694 H    2118 MOH     0.0372 ****
13014 O1     10.688024   17.254777  -21.683995 O    2118 MOH    -0.6497 ****
13015 HO1    10.356047   17.616893  -22.509189 H    2118 MOH     0.4215 ****
13016 HC1    11.364101   28.426492   -7.626005 H    2119 MOH     0.0372 ****
13017 C1     11.297706   28.166029   -6.569588 C    2119 MOH     0.1166 ****
13018 HC2    11.405670   27.087846   -6.445844 H    2119 MOH     0.0372 ****
13019 HC3    10.313901   28.480789   -6.220984 H    2119 MOH     0.0372 ****
13020 O1     12.281510   28.884955   -5.846218 O    2119 MOH    -0.6497 ****
13021 HO1    13.104235   28.775952   -6.329171 H    2119 MOH     0.4215 ****
13022 HC1    15.690764   23.789608   -3.410235 H    2120 MOH     0.0372 ****
13023 C1     15.280268   22.833082   -3.087087 C    2120 MOH     0.1166 ****
13024 HC2    16.059113   22.070474   -3.065874 H    2120 MOH     0.0372 ****
13025 HC3    14.495071   22.554248   -3.789244 H    2120 MOH     0.0372 ****
13026 O1     14.684442   22.977602   -1.831265 O    2120 MOH    -0.6497 ****
13027 HO1    15.305094   23.426675   -1.252852 H    2120 MOH     0.4215 ****
13028 HC1     3.990183   25.110291  -17.042546 H    2121 MOH     0.0372 ****
13029 C1      4.549058   25.742667  -16.353117 C    2121 MOH     0.1166 ****
13030 HC2     4.594092   26.743284  -16.783745 H    2121 MOH     0.0372 ****
13031 HC3     5.562308   25.348300  -16.272507 H    2121 MOH     0.0372 ****
13032 O1      3.883951   25.754915  -15.064769 O    2121 MOH    -0.6497 ****
13033 HO1     4.351027   25.136827  -14.499083 H    2121 MOH     0.4215 ****
13034 HC1    12.465108   18.897160  -19.143360 H    2122 MOH     0.0372 ****
13035 C1     11.582917   19.480547  -18.882438 C    2122 MOH     0.1166 ****
13036 HC2    11.887180   20.479122  -18.571311 H    2122 MOH     0.0372 ****
13037 HC3    11.047713   18.990649  -18.069265 H    2122 MOH     0.0372 ****
13038 O1     10.761925   19.535660  -20.049871 O    2122 MOH    -0.6497 ****
13039 HO1    10.671281   18.646904  -20.402718 H    2122 MOH     0.4215 ****
13040 HC1    20.001838    9.904675  -13.692274 H    2123 MOH     0.0372 ****
13041 C1     20.839574   10.132886  -14.352005 C    2123 MOH     0.1166 ****
13042 HC2    21.196953   11.134319  -14.116538 H    2123 MOH     0.0372 ****
13043 HC3    20.489122   10.087978  -15.382966 H    2123 MOH     0.0372 ****
13044 O1     21.920373    9.191057  -14.147651 O    2123 MOH    -0.6497 ****
13045 HO1    22.753490    9.579301  -14.425544 H    2123 MOH     0.4215 ****
13046 HC1    14.195427   20.759997  -14.076940 H    2124 MOH     0.0372 ****
13047 C1     13.883658   21.803480  -14.112296 C    2124 MOH     0.1166 ****
13048 HC2    14.689638   22.460759  -13.784198 H    2124 MOH     0.0372 ****
13049 HC3    13.040726   21.926771  -13.433473 H    2124 MOH     0.0372 ****
13050 O1     13.430438   22.149674  -15.406301 O    2124 MOH    -0.6497 ****
13051 HO1    13.219127   23.085379  -15.376603 H    2124 MOH     0.4215 ****
13052 HC1     9.920725   19.930845  -13.260232 H    2125 MOH     0.0372 ****
13053 C1     10.692065   19.637722  -12.547468 C    2125 MOH     0.1166 ****
13054 HC2    11.589845   19.381343  -13.110325 H    2125 MOH     0.0372 ****
13055 HC3    10.361821   18.749374  -12.008653 H    2125 MOH     0.0372 ****
13056 O1     10.952450   20.715090  -11.638836 O    2125 MOH    -0.6497 ****
13057 HO1    10.286188   20.690187  -10.947993 H    2125 MOH     0.4215 ****
13058 HC1     5.491294   21.969228  -13.710659 H    2126 MOH     0.0372 ****
13059 C1      6.079037   22.884929  -13.649141 C    2126 MOH     0.1166 ****
13060 HC2     6.544958   23.095585  -14.612220 H    2126 MOH     0.0372 ****
13061 HC3     6.867697   22.736327  -12.912336 H    2126 MOH     0.0372 ****
13062 O1      5.297304   24.009653  -13.273667 O    2126 MOH    -0.6497 ****
13063 HO1     4.897201   23.845538  -12.416654 H    2126 MOH     0.4215 ****
13064 HC1    -0.070090  -24.233700  -17.415050 H    2127 MOH     0.0372 ****
13065 C1     -0.781386  -25.059587  -17.425657 C    2127 MOH     0.1166 ****
13066 HC2    -0.419387  -25.790759  -18.149027 H    2127 MOH     0.0372 ****
13067 HC3    -1.770387  -24.687264  -17.695771 H    2127 MOH     0.0372 ****
13068 O1     -0.844894  -25.633175  -16.140843 O    2127 MOH    -0.6497 ****
13069 HO1    -1.120868  -24.949360  -15.526368 H    2127 MOH     0.4215 ****
13070 HC1    -4.904244  -24.579078  -20.533391 H    2128 MOH     0.0372 ****
13071 C1     -4.946968  -23.705019  -21.183222 C    2128 MOH     0.1166 ****
13072 HC2    -4.146183  -23.004873  -20.944927 H    2128 MOH     0.0372 ****
13073 HC3    -5.886317  -23.188993  -20.988061 H    2128 MOH     0.0372 ****
13074 O1     -4.946390  -24.059378  -22.574808 O    2128 MOH    -0.6497 ****
13075 HO1    -4.837271  -23.266968  -23.105845 H    2128 MOH     0.4215 ****
13076 HC1     2.507201  -29.366606  -20.235699 H    2129 MOH     0.0372 ****
13077 C1      2.254322  -28.501936  -19.621930 C    2129 MOH     0.1166 ****
13078 HC2     3.062035  -28.318633  -18.914116 H    2129 MOH     0.0372 ****
13079 HC3     1.336335  -28.734638  -19.083115 H    2129 MOH     0.0372 ****
13080 O1      2.062064  -27.393542  -20.478236 O    2129 MOH    -0.6497 ****
13081 HO1     1.376750  -27.664619  -21.093419 H    2129 MOH     0.4215 ****
13082 HC1    -3.892726  -33.438883  -16.351561 H    2130 MOH     0.0372 ****
13083 C1     -4.784155  -32.812222  -16.383381 C    2130 MOH     0.1166 ****
13084 HC2    -5.672697  -33.442965  -16.423686 H    2130 MOH     0.0372 ****
13085 HC3    -4.774918  -32.194134  -17.281407 H    2130 MOH     0.0372 ****
13086 O1     -4.773763  -31.964698  -15.261910 O    2130 MOH    -0.6497 ****
13087 HO1    -4.018011  -31.384577  -15.378582 H    2130 MOH     0.4215 ****
13088 HC1    -2.235731  -32.176987  -17.765068 H    2131 MOH     0.0372 ****
13089 C1     -2.011142  -31.111051  -17.714863 C    2131 MOH     0.1166 ****
13090 HC2    -2.370254  -30.563182  -18.586019 H    2131 MOH     0.0372 ****
13091 HC3    -0.925146  -31.064511  -17.786988 H    2131 MOH     0.0372 ****
13092 O1     -2.371986  -30.512967  -16.448435 O    2131 MOH    -0.6497 ****
13093 HO1    -2.444154  -29.564198  -16.574300 H    2131 MOH     0.4215 ****
13094 HC1    -1.035997  -24.159399  -21.858509 H    2132 MOH     0.0372 ****
13095 C1     -1.347766  -24.578262  -20.901086 C    2132 MOH     0.1166 ****
13096 HC2    -1.874887  -23.831984  -20.308531 H    2132 MOH     0.0372 ****
13097 HC3    -0.455183  -24.911801  -20.372878 H    2132 MOH     0.0372 ****
13098 O1     -2.162407  -25.692371  -21.128068 O    2132 MOH    -0.6497 ****
13099 HO1    -2.848300  -25.451097  -21.753857 H    2132 MOH     0.4215 ****
13100 HC1    -4.285902  -26.421095  -16.982301 H    2133 MOH     0.0372 ****
13101 C1     -3.848270  -27.324548  -17.407272 C    2133 MOH     0.1166 ****
13102 HC2    -3.604628  -27.129405  -18.450961 H    2133 MOH     0.0372 ****
13103 HC3    -4.553792  -28.150843  -17.313934 H    2133 MOH     0.0372 ****
13104 O1     -2.712045  -27.622161  -16.659860 O    2133 MOH    -0.6497 ****
13105 HO1    -2.084465  -26.896296  -16.707943 H    2133 MOH     0.4215 ****
13106 HC1    -2.305013  -28.635025  -20.784414 H    2134 MOH     0.0372 ****
13107 C1     -1.379521  -28.335371  -20.290853 C    2134 MOH     0.1166 ****
13108 HC2    -0.935538  -29.189426  -19.778908 H    2134 MOH     0.0372 ****
13109 HC3    -1.625472  -27.583378  -19.541320 H    2134 MOH     0.0372 ****
13110 O1     -0.497329  -27.836083  -21.316865 O    2134 MOH    -0.6497 ****
13111 HO1    -0.687855  -26.897929  -21.391818 H    2134 MOH     0.4215 ****
13112 HC1     0.929765  -10.090918  -30.094182 H    2135 MOH     0.0372 ****
13113 C1     -0.106579   -9.952114  -29.787297 C    2135 MOH     0.1166 ****
13114 HC2    -0.670072   -9.587956  -30.645725 H    2135 MOH     0.0372 ****
13115 HC3    -0.176438   -9.202162  -28.998873 H    2135 MOH     0.0372 ****
13116 O1     -0.631967  -11.194822  -29.370104 O    2135 MOH    -0.6497 ****
13117 HO1    -1.394647  -11.042545  -28.807954 H    2135 MOH     0.4215 ****
13118 HC1     7.537539  -19.392855  -21.496470 H    2136 MOH     0.0372 ****
13119 C1      7.598738  -18.613101  -20.738452 C    2136 MOH     0.1166 ****
13120 HC2     7.959005  -19.058908  -19.810728 H    2136 MOH     0.0372 ****
13121 HC3     6.605696  -18.187706  -20.592788 H    2136 MOH     0.0372 ****
13122 O1      8.469960  -17.590439  -21.166251 O    2136 MOH    -0.6497 ****
13123 HO1     9.356770  -17.950514  -21.232719 H    2136 MOH     0.4215 ****
13124 HC1    13.796016  -14.643703  -27.277068 H    2137 MOH     0.0372 ****
13125 C1     14.229606  -14.450602  -26.296311 C    2137 MOH     0.1166 ****
13126 HC2    14.515394  -13.399771  -26.245399 H    2137 MOH     0.0372 ****
13127 HC3    15.117571  -15.069914  -26.169739 H    2137 MOH     0.0372 ****
13128 O1     13.275246  -14.765361  -25.288684 O    2137 MOH    -0.6497 ****
13129 HO1    13.476164  -15.656975  -24.995942 H    2137 MOH     0.4215 ****
13130 HC1     1.979388  -11.542241  -25.425156 H    2138 MOH     0.0372 ****
13131 C1      2.583296  -10.990697  -24.704614 C    2138 MOH     0.1166 ****
13132 HC2     3.395051  -11.625932  -24.351060 H    2138 MOH     0.0372 ****
13133 HC3     1.934932  -10.704924  -23.875885 H    2138 MOH     0.0372 ****
13134 O1      3.087900   -9.866790  -25.360102 O    2138 MOH    -0.6497 ****
13135 HO1     3.900810   -9.605103  -24.920988 H    2138 MOH     0.4215 ****
13136 HC1     0.041223  -16.863757  -21.040386 H    2139 MOH     0.0372 ****
13137 C1     -0.978955  -17.156471  -20.792192 C    2139 MOH     0.1166 ****
13138 HC2    -1.140036  -17.098908  -19.716683 H    2139 MOH     0.0372 ****
13139 HC3    -1.187378  -18.178725  -21.108976 H    2139 MOH     0.0372 ****
13140 O1     -1.865188  -16.264040  -21.393233 O    2139 MOH    -0.6497 ****
13141 HO1    -1.413700  -15.887636  -22.152665 H    2139 MOH     0.4215 ****
13142 HC1    12.748703  -11.890885  -30.363589 H    2140 MOH     0.0372 ****
13143 C1     12.797200  -12.978458  -30.414501 C    2140 MOH     0.1166 ****
13144 HC2    12.419036  -13.333226  -31.372631 H    2140 MOH     0.0372 ****
13145 HC3    12.190405  -13.425082  -29.626784 H    2140 MOH     0.0372 ****
13146 O1     14.133766  -13.412834  -30.340962 O    2140 MOH    -0.6497 ****
13147 HO1    14.101434  -14.372218  -30.319749 H    2140 MOH     0.4215 ****
13148 HC1    -5.359889  -14.077054  -24.836136 H    2141 MOH     0.0372 ****
13149 C1     -4.319504  -14.049702  -25.162112 C    2141 MOH     0.1166 ****
13150 HC2    -3.735225  -14.689427  -24.499553 H    2141 MOH     0.0372 ****
13151 HC3    -3.978290  -13.016017  -25.108372 H    2141 MOH     0.0372 ****
13152 O1     -4.252531  -14.531843  -26.485109 O    2141 MOH    -0.6497 ****
13153 HO1    -4.847202  -15.284653  -26.528949 H    2141 MOH     0.4215 ****
13154 HC1    17.544751  -14.225249  -28.110747 H    2142 MOH     0.0372 ****
13155 C1     17.627312  -13.285461  -27.564861 C    2142 MOH     0.1166 ****
13156 HC2    16.800547  -12.629814  -27.837804 H    2142 MOH     0.0372 ****
13157 HC3    18.584559  -12.823324  -27.809519 H    2142 MOH     0.0372 ****
13158 O1     17.586320  -13.643495  -26.223479 O    2142 MOH    -0.6497 ****
13159 HO1    17.810332  -12.900483  -25.659208 H    2142 MOH     0.4215 ****
13160 HC1     5.452150   -9.601020  -28.367427 H    2143 MOH     0.0372 ****
13161 C1      4.786465   -8.742066  -28.282574 C    2143 MOH     0.1166 ****
13162 HC2     3.744348   -9.062132  -28.289645 H    2143 MOH     0.0372 ****
13163 HC3     4.921565   -8.117446  -29.165043 H    2143 MOH     0.0372 ****
13164 O1      5.012209   -7.945165  -27.079078 O    2143 MOH    -0.6497 ****
13165 HO1     4.939463   -8.512222  -26.309039 H    2143 MOH     0.4215 ****
13166 HC1     5.526628  -20.255076  -19.417576 H    2144 MOH     0.0372 ****
13167 C1      5.826273  -21.302233  -19.432426 C    2144 MOH     0.1166 ****
13168 HC2     6.460203  -21.490843  -20.299338 H    2144 MOH     0.0372 ****
13169 HC3     4.958515  -21.956246  -19.511621 H    2144 MOH     0.0372 ****
13170 O1      6.531217  -21.613318  -18.238829 O    2144 MOH    -0.6497 ****
13171 HO1     6.965385  -22.461658  -18.357623 H    2144 MOH     0.4215 ****
13172 HC1     2.392771   -5.347073  -25.633752 H    2145 MOH     0.0372 ****
13173 C1      1.938396   -5.049052  -26.578447 C    2145 MOH     0.1166 ****
13174 HC2     0.857596   -5.183774  -26.530364 H    2145 MOH     0.0372 ****
13175 HC3     2.361016   -5.673672  -27.366164 H    2145 MOH     0.0372 ****
13176 O1      2.220143   -3.691626  -26.837955 O    2145 MOH    -0.6497 ****
13177 HO1     1.950520   -3.497300  -27.738809 H    2145 MOH     0.4215 ****
13178 HC1     3.433733   -2.433405  -22.510461 H    2146 MOH     0.0372 ****
13179 C1      3.091942   -3.102932  -23.299593 C    2146 MOH     0.1166 ****
13180 HC2     2.593689   -3.979033  -22.883814 H    2146 MOH     0.0372 ****
13181 HC3     3.964318   -3.420958  -23.870228 H    2146 MOH     0.0372 ****
13182 O1      2.310787   -2.372984  -24.221660 O    2146 MOH    -0.6497 ****
13183 HO1     2.337922   -2.860024  -25.048268 H    2146 MOH     0.4215 ****
13184 HC1     6.200396  -19.139333  -26.841490 H    2147 MOH     0.0372 ****
13185 C1      6.060100  -19.293651  -27.910636 C    2147 MOH     0.1166 ****
13186 HC2     5.863801  -18.339167  -28.399954 H    2147 MOH     0.0372 ****
13187 HC3     5.225828  -19.972568  -28.086705 H    2147 MOH     0.0372 ****
13188 O1      7.235585  -19.848052  -28.462179 O    2147 MOH    -0.6497 ****
13189 HO1     7.882217  -19.948890  -27.760022 H    2147 MOH     0.4215 ****
13190 HC1     8.963594  -11.102966  -25.551021 H    2148 MOH     0.0372 ****
13191 C1      9.446259  -12.068881  -25.698099 C    2148 MOH     0.1166 ****
13192 HC2     8.673187  -12.822916  -25.845884 H    2148 MOH     0.0372 ****
13193 HC3    10.010907  -12.311381  -24.798659 H    2148 MOH     0.0372 ****
13194 O1     10.354431  -12.041120  -26.820984 O    2148 MOH    -0.6497 ****
13195 HO1    11.065726  -11.436913  -26.591882 H    2148 MOH     0.4215 ****
13196 HC1    12.662100  -25.228356  -26.596124 H    2149 MOH     0.0372 ****
13197 C1     12.495823  -25.141400  -25.522029 C    2149 MOH     0.1166 ****
13198 HC2    12.567992  -24.085261  -25.262521 H    2149 MOH     0.0372 ****
13199 HC3    13.282751  -25.695393  -25.009377 H    2149 MOH     0.0372 ****
13200 O1     11.170227  -25.660283  -25.287977 O    2149 MOH    -0.6497 ****
13201 HO1    10.859035  -25.311639  -24.449348 H    2149 MOH     0.4215 ****
13202 HC1    11.528184   -7.831264  -17.415050 H    2150 MOH     0.0372 ****
13203 C1     10.816888   -8.657150  -17.425657 C    2150 MOH     0.1166 ****
13204 HC2    11.178887   -9.388323  -18.149027 H    2150 MOH     0.0372 ****
13205 HC3     9.827887   -8.284828  -17.695771 H    2150 MOH     0.0372 ****
13206 O1     10.753380   -9.230739  -16.140843 O    2150 MOH    -0.6497 ****
13207 HO1    10.477406   -8.546923  -15.526368 H    2150 MOH     0.4215 ****
13208 HC1     7.457865   -6.301558  -34.423089 H    2151 MOH     0.0372 ****
13209 C1      6.877050   -5.920254  -33.583047 C    2151 MOH     0.1166 ****
13210 HC2     7.174386   -4.913105  -33.291011 H    2151 MOH     0.0372 ****
13211 HC3     7.084896   -6.575492  -32.736640 H    2151 MOH     0.0372 ****
13212 O1      5.497761   -5.963936  -33.868011 O    2151 MOH    -0.6497 ****
13213 HO1     5.092461   -6.638771  -33.318589 H    2151 MOH     0.4215 ****
13214 HC1    -3.964433  -16.658408  -23.397173 H    2152 MOH     0.0372 ****
13215 C1     -4.355877  -17.427548  -24.061854 C    2152 MOH     0.1166 ****
13216 HC2    -3.856469  -17.393664  -25.029883 H    2152 MOH     0.0372 ****
13217 HC3    -5.427439  -17.265065  -24.186305 H    2152 MOH     0.0372 ****
13218 O1     -4.215003  -18.694343  -23.477076 O    2152 MOH    -0.6497 ****
13219 HO1    -4.661295  -18.694751  -22.627841 H    2152 MOH     0.4215 ****
13220 HC1    12.255645  -19.090343  -27.777700 H    2153 MOH     0.0372 ****
13221 C1     12.238902  -20.097492  -28.195600 C    2153 MOH     0.1166 ****
13222 HC2    12.740620  -20.755996  -27.487786 H    2153 MOH     0.0372 ****
13223 HC3    12.790272  -20.126069  -29.136052 H    2153 MOH     0.0372 ****
13224 O1     10.895985  -20.533093  -28.344799 O    2153 MOH    -0.6497 ****
13225 HO1    10.404083  -20.272222  -27.562032 H    2153 MOH     0.4215 ****
13226 HC1     6.390344  -15.299350  -28.646027 H    2154 MOH     0.0372 ****
13227 C1      5.326865  -15.098492  -28.777549 C    2154 MOH     0.1166 ****
13228 HC2     4.744896  -16.019500  -28.750679 H    2154 MOH     0.0372 ****
13229 HC3     5.161743  -14.627781  -29.746992 H    2154 MOH     0.0372 ****
13230 O1      4.876532  -14.208102  -27.798206 O    2154 MOH    -0.6497 ****
13231 HO1     4.986805  -13.313630  -28.128425 H    2154 MOH     0.4215 ****
13232 HC1    10.103284  -12.371801  -31.442634 H    2155 MOH     0.0372 ****
13233 C1      9.699138  -12.026015  -32.393693 C    2155 MOH     0.1166 ****
13234 HC2     8.766140  -12.549389  -32.605825 H    2155 MOH     0.0372 ****
13235 HC3    10.420249  -12.170943  -33.197673 H    2155 MOH     0.0372 ****
13236 O1      9.452610  -10.660016  -32.239544 O    2155 MOH    -0.6497 ****
13237 HO1    10.277066  -10.204411  -32.051453 H    2155 MOH     0.4215 ****
13238 HC1     7.055451  -20.052585  -24.819872 H    2156 MOH     0.0372 ****
13239 C1      7.809471  -20.806211  -25.047560 C    2156 MOH     0.1166 ****
13240 HC2     7.323342  -21.695784  -25.447076 H    2156 MOH     0.0372 ****
13241 HC3     8.298487  -21.095659  -24.117715 H    2156 MOH     0.0372 ****
13242 O1      8.743624  -20.264057  -25.992255 O    2156 MOH    -0.6497 ****
13243 HO1     8.960130  -19.366319  -25.732747 H    2156 MOH     0.4215 ****
13244 HC1     5.300884  -11.699825  -33.906194 H    2157 MOH     0.0372 ****
13245 C1      5.063593  -11.986415  -32.880889 C    2157 MOH     0.1166 ****
13246 HC2     5.825695  -12.649002  -32.471475 H    2157 MOH     0.0372 ****
13247 HC3     4.110388  -12.515097  -32.899981 H    2157 MOH     0.0372 ****
13248 O1      4.961979  -10.860058  -32.042968 O    2157 MOH    -0.6497 ****
13249 HO1     5.735629  -10.303616  -32.162469 H    2157 MOH     0.4215 ****
13250 HC1     2.397967  -22.276721  -25.331817 H    2158 MOH     0.0372 ****
13251 C1      2.486301  -21.290802  -24.875734 C    2158 MOH     0.1166 ****
13252 HC2     1.885280  -21.258958  -23.967808 H    2158 MOH     0.0372 ****
13253 HC3     2.134118  -20.555547  -25.599104 H    2158 MOH     0.0372 ****
13254 O1      3.826331  -21.087086  -24.568142 O    2158 MOH    -0.6497 ****
13255 HO1     4.311306  -21.553714  -25.251914 H    2158 MOH     0.4215 ****
13256 HC1    12.342825  -10.484470  -33.109285 H    2159 MOH     0.0372 ****
13257 C1     12.763136   -9.601020  -32.628452 C    2159 MOH     0.1166 ****
13258 HC2    13.016593   -8.859233  -33.385764 H    2159 MOH     0.0372 ****
13259 HC3    13.649946   -9.883936  -32.062060 H    2159 MOH     0.0372 ****
13260 O1     11.757969   -9.104590  -31.805380 O    2159 MOH    -0.6497 ****
13261 HO1    12.114195   -8.908223  -30.936346 H    2159 MOH     0.4215 ****
13262 HC1     6.694030   -8.176642  -20.533391 H    2160 MOH     0.0372 ****
13263 C1      6.651306   -7.302582  -21.183222 C    2160 MOH     0.1166 ****
13264 HC2     7.452091   -6.602436  -20.944927 H    2160 MOH     0.0372 ****
13265 HC3     5.711957   -6.786556  -20.988061 H    2160 MOH     0.0372 ****
13266 O1      6.651884   -7.656942  -22.574808 O    2160 MOH    -0.6497 ****
13267 HO1     6.761003   -6.864532  -23.105845 H    2160 MOH     0.4215 ****
13268 HC1     0.176900  -15.460608  -27.648299 H    2161 MOH     0.0372 ****
13269 C1      1.208625  -15.744340  -27.854067 C    2161 MOH     0.1166 ****
13270 HC2     1.479403  -16.570227  -27.197165 H    2161 MOH     0.0372 ****
13271 HC3     1.856990  -14.893551  -27.643350 H    2161 MOH     0.0372 ****
13272 O1      1.346612  -16.063591  -29.215955 O    2161 MOH    -0.6497 ****
13273 HO1     1.049854  -15.270772  -29.668503 H    2161 MOH     0.4215 ****
13274 HC1    11.802425  -20.022782  -20.005182 H    2162 MOH     0.0372 ****
13275 C1     11.877481  -18.980933  -20.314895 C    2162 MOH     0.1166 ****
13276 HC2    12.916134  -18.756396  -20.558139 H    2162 MOH     0.0372 ****
13277 HC3    11.515482  -18.379583  -19.479802 H    2162 MOH     0.0372 ****
13278 O1     10.989516  -18.823349  -21.391111 O    2162 MOH    -0.6497 ****
13279 HO1    11.356711  -19.343866  -22.108825 H    2162 MOH     0.4215 ****
13280 HC1     1.527323  -23.935434  -19.456467 H    2163 MOH     0.0372 ****
13281 C1      2.519788  -23.914613  -19.906894 C    2163 MOH     0.1166 ****
13282 HC2     3.042867  -23.003403  -19.616980 H    2163 MOH     0.0372 ****
13283 HC3     2.459743  -23.970135  -20.993010 H    2163 MOH     0.0372 ****
13284 O1      3.254755  -24.979325  -19.458588 O    2163 MOH    -0.6497 ****
13285 HO1     2.807885  -25.775409  -19.754159 H    2163 MOH     0.4215 ****
13286 HC1    -0.532663  -11.705948  -26.451168 H    2164 MOH     0.0372 ****
13287 C1     -0.772263  -12.338733  -25.596983 C    2164 MOH     0.1166 ****
13288 HC2    -1.817845  -12.214217  -25.316261 H    2164 MOH     0.0372 ****
13289 HC3    -0.140065  -12.031322  -24.763304 H    2164 MOH     0.0372 ****
13290 O1     -0.470309  -13.688810  -25.913059 O    2164 MOH    -0.6497 ****
13291 HO1    -0.932767  -13.961928  -26.708554 H    2164 MOH     0.4215 ****
13292 HC1     8.702632  -23.332451  -23.930332 H    2165 MOH     0.0372 ****
13293 C1      8.953779  -23.852968  -23.006143 C    2165 MOH     0.1166 ****
13294 HC2     8.286940  -24.706615  -22.885228 H    2165 MOH     0.0372 ****
13295 HC3     8.830804  -23.183033  -22.155494 H    2165 MOH     0.0372 ****
13296 O1     10.293809  -24.283670  -23.103017 O    2165 MOH    -0.6497 ****
13297 HO1    10.483757  -24.839296  -22.344291 H    2165 MOH     0.4215 ****
13298 HC1     0.228862  -17.104215  -24.709564 H    2166 MOH     0.0372 ****
13299 C1     -0.780924  -16.704949  -24.617640 C    2166 MOH     0.1166 ****
13300 HC2    -1.393492  -17.446328  -24.104280 H    2166 MOH     0.0372 ****
13301 HC3    -1.182182  -16.513072  -25.613246 H    2166 MOH     0.0372 ****
13302 O1     -0.712796  -15.516130  -23.855379 O    2166 MOH    -0.6497 ****
13303 HO1    -0.378511  -14.822924  -24.429549 H    2166 MOH     0.4215 ****
13304 HC1    -4.027364   -9.868015  -26.285705 H    2167 MOH     0.0372 ****
13305 C1     -3.164803   -9.405061  -26.765123 C    2167 MOH     0.1166 ****
13306 HC2    -2.377875   -9.290343  -26.019125 H    2167 MOH     0.0372 ****
13307 HC3    -3.481768   -8.413018  -27.087564 H    2167 MOH     0.0372 ****
13308 O1     -2.782020  -10.192572  -27.924071 O    2167 MOH    -0.6497 ****
13309 HO1    -3.475995  -10.146440  -28.585216 H    2167 MOH     0.4215 ****
13310 HC1     2.658929  -14.430597  -20.024981 H    2168 MOH     0.0372 ****
13311 C1      3.266879  -13.559804  -20.273176 C    2168 MOH     0.1166 ****
13312 HC2     4.316502  -13.829248  -20.387727 H    2168 MOH     0.0372 ****
13313 HC3     3.210299  -12.837613  -19.457881 H    2168 MOH     0.0372 ****
13314 O1      2.871971  -12.997646  -21.483035 O    2168 MOH    -0.6497 ****
13315 HO1     3.153718  -13.596138  -22.178828 H    2168 MOH     0.4215 ****
13316 HC1     8.239597   -8.180724  -30.712900 H    2169 MOH     0.0372 ****
13317 C1      7.224615   -8.564070  -30.816845 C    2169 MOH     0.1166 ****
13318 HC2     6.503505   -7.746756  -30.795632 H    2169 MOH     0.0372 ****
13319 HC3     6.989634   -9.258908  -30.010743 H    2169 MOH     0.0372 ****
13320 O1      7.097021   -9.276055  -31.999127 O    2169 MOH    -0.6497 ****
13321 HO1     7.817554   -9.909248  -32.030947 H    2169 MOH     0.4215 ****
13322 HC1    11.113646  -16.462857  -23.453035 H    2170 MOH     0.0372 ****
13323 C1     10.491263  -15.568385  -23.462227 C    2170 MOH     0.1166 ****
13324 HC2    10.935245  -14.781283  -22.852701 H    2170 MOH     0.0372 ****
13325 HC3     9.519582  -15.846402  -23.052812 H    2170 MOH     0.0372 ****
13326 O1     10.311707  -15.115638  -24.783810 O    2170 MOH    -0.6497 ****
13327 HO1    11.169072  -14.840070  -25.116857 H    2170 MOH     0.4215 ****
13328 HC1     2.854074  -10.495084  -29.271109 H    2171 MOH     0.0372 ****
13329 C1      3.035362  -11.533259  -28.991802 C    2171 MOH     0.1166 ****
13330 HC2     2.376028  -12.170535  -29.580822 H    2171 MOH     0.0372 ****
13331 HC3     2.810772  -11.687985  -27.936092 H    2171 MOH     0.0372 ****
13332 O1      4.365577  -11.928852  -29.232926 O    2171 MOH    -0.6497 ****
13333 HO1     4.545133  -11.820666  -30.169842 H    2171 MOH     0.4215 ****
13334 HC1     6.742528  -16.283228  -25.612539 H    2172 MOH     0.0372 ****
13335 C1      7.196325  -15.403861  -25.155748 C    2172 MOH     0.1166 ****
13336 HC2     8.033483  -15.087061  -25.778002 H    2172 MOH     0.0372 ****
13337 HC3     7.500011  -15.652893  -24.138928 H    2172 MOH     0.0372 ****
13338 O1      6.246006  -14.406103  -25.191103 O    2172 MOH    -0.6497 ****
13339 HO1     5.918071  -14.350581  -26.091957 H    2172 MOH     0.4215 ****
13340 HC1    -1.424669   -4.810635  -27.941749 H    2173 MOH     0.0372 ****
13341 C1     -2.332264   -4.874321  -27.342122 C    2173 MOH     0.1166 ****
13342 HC2    -2.943100   -5.721028  -27.654663 H    2173 MOH     0.0372 ****
13343 HC3    -2.881324   -3.942291  -27.474351 H    2173 MOH     0.0372 ****
13344 O1     -1.960450   -5.057625  -26.017711 O    2173 MOH    -0.6497 ****
13345 HO1    -1.433330   -5.860241  -26.019125 H    2173 MOH     0.4215 ****
13346 HC1    14.105476  -12.964170  -20.235699 H    2174 MOH     0.0372 ****
13347 C1     13.852596  -12.099500  -19.621930 C    2174 MOH     0.1166 ****
13348 HC2    14.660309  -11.916196  -18.914116 H    2174 MOH     0.0372 ****
13349 HC3    12.934609  -12.332201  -19.083115 H    2174 MOH     0.0372 ****
13350 O1     13.660339  -10.991106  -20.478236 O    2174 MOH    -0.6497 ****
13351 HO1    12.975024  -11.262182  -21.093419 H    2174 MOH     0.4215 ****
13352 HC1    10.364823  -20.223641  -23.769818 H    2175 MOH     0.0372 ****
13353 C1     11.187547  -20.914397  -23.955080 C    2175 MOH     0.1166 ****
13354 HC2    11.462943  -20.793147  -25.002306 H    2175 MOH     0.0372 ****
13355 HC3    10.879242  -21.954205  -23.848307 H    2175 MOH     0.0372 ****
13356 O1     12.277585  -20.603720  -23.070490 O    2175 MOH    -0.6497 ****
13357 HO1    12.888421  -21.344282  -23.057762 H    2175 MOH     0.4215 ****
13358 HC1    15.198977  -19.265890  -24.834721 H    2176 MOH     0.0372 ****
13359 C1     14.367593  -18.582483  -25.004427 C    2176 MOH     0.1166 ****
13360 HC2    13.445564  -19.042578  -24.647338 H    2176 MOH     0.0372 ****
13361 HC3    14.297156  -18.394280  -26.075694 H    2176 MOH     0.0372 ****
13362 O1     14.695528  -17.361820  -24.352474 O    2176 MOH    -0.6497 ****
13363 HO1    15.308674  -17.559004  -23.640418 H    2176 MOH     0.4215 ****
13364 HC1     7.705548  -17.036446  -16.351561 H    2177 MOH     0.0372 ****
13365 C1      6.814119  -16.409785  -16.383381 C    2177 MOH     0.1166 ****
13366 HC2     5.925577  -17.040529  -16.423686 H    2177 MOH     0.0372 ****
13367 HC3     6.823357  -15.791697  -17.281407 H    2177 MOH     0.0372 ****
13368 O1      6.824511  -15.562262  -15.261910 O    2177 MOH    -0.6497 ****
13369 HO1     7.580263  -14.982141  -15.378582 H    2177 MOH     0.4215 ****
13370 HC1     9.362543  -15.774551  -17.765068 H    2178 MOH     0.0372 ****
13371 C1      9.587132  -14.708614  -17.714863 C    2178 MOH     0.1166 ****
13372 HC2     9.228020  -14.160745  -18.586019 H    2178 MOH     0.0372 ****
13373 HC3    10.673128  -14.662074  -17.786988 H    2178 MOH     0.0372 ****
13374 O1      9.226288  -14.110531  -16.448435 O    2178 MOH    -0.6497 ****
13375 HO1     9.154120  -13.161762  -16.574300 H    2178 MOH     0.4215 ****
13376 HC1     3.604629  -17.868456  -21.315451 H    2179 MOH     0.0372 ****
13377 C1      3.949884  -18.711489  -21.912956 C    2179 MOH     0.1166 ****
13378 HC2     4.690047  -19.243437  -21.314037 H    2179 MOH     0.0372 ****
13379 HC3     4.391557  -18.325694  -22.831488 H    2179 MOH     0.0372 ****
13380 O1      2.897375  -19.629231  -22.246711 O    2179 MOH    -0.6497 ****
13381 HO1     3.176235  -20.142399  -23.008265 H    2179 MOH     0.4215 ****
13382 HC1    10.762040   -9.331168  -27.537991 H    2180 MOH     0.0372 ****
13383 C1     10.269560   -8.894751  -28.407025 C    2180 MOH     0.1166 ****
13384 HC2     9.327325   -8.407302  -28.156709 H    2180 MOH     0.0372 ****
13385 HC3    10.017258   -9.729210  -29.061806 H    2180 MOH     0.0372 ****
13386 O1     11.107296   -7.969660  -29.107061 O    2180 MOH    -0.6497 ****
13387 HO1    10.566318   -7.269922  -29.478999 H    2180 MOH     0.4215 ****
13388 HC1     9.637362  -16.167286  -27.892251 H    2181 MOH     0.0372 ****
13389 C1     10.300737  -16.989089  -27.622843 C    2181 MOH     0.1166 ****
13390 HC2    11.316874  -16.602887  -27.545062 H    2181 MOH     0.0372 ****
13391 HC3    10.286881  -17.771701  -28.381569 H    2181 MOH     0.0372 ****
13392 O1      9.922573  -17.416117  -26.335909 O    2181 MOH    -0.6497 ****
13393 HO1     9.976266  -16.646977  -25.764567 H    2181 MOH     0.4215 ****
13394 HC1    13.417274   -9.968035  -23.788910 H    2182 MOH     0.0372 ****
13395 C1     13.077792  -10.713905  -24.508038 C    2182 MOH     0.1166 ****
13396 HC2    12.571456  -11.551222  -24.026498 H    2182 MOH     0.0372 ****
13397 HC3    13.964602  -11.110722  -25.003013 H    2182 MOH     0.0372 ****
13398 O1     12.236593  -10.093368  -25.462632 O    2182 MOH    -0.6497 ****
13399 HO1    12.766023   -9.408327  -25.878411 H    2182 MOH     0.4215 ****
13400 HC1     6.785829  -12.471822  -29.626077 H    2183 MOH     0.0372 ****
13401 C1      7.442276  -12.196255  -28.800883 C    2183 MOH     0.1166 ****
13402 HC2     6.895525  -12.232180  -27.857603 H    2183 MOH     0.0372 ****
13403 HC3     7.788686  -11.173593  -28.951497 H    2183 MOH     0.0372 ****
13404 O1      8.561181  -13.068273  -28.735829 O    2183 MOH    -0.6497 ****
13405 HO1     9.166244  -12.741674  -28.065492 H    2183 MOH     0.4215 ****
13406 HC1    10.562277   -7.756963  -21.858509 H    2184 MOH     0.0372 ****
13407 C1     10.250508   -8.175825  -20.901086 C    2184 MOH     0.1166 ****
13408 HC2     9.723387   -7.429547  -20.308531 H    2184 MOH     0.0372 ****
13409 HC3    11.143091   -8.509364  -20.372878 H    2184 MOH     0.0372 ****
13410 O1      9.435867   -9.289935  -21.128068 O    2184 MOH    -0.6497 ****
13411 HO1     8.749974   -9.048660  -21.753857 H    2184 MOH     0.4215 ****
13412 HC1     3.242053   -2.362778  -29.577994 H    2185 MOH     0.0372 ****
13413 C1      2.334458   -1.983107  -30.047513 C    2185 MOH     0.1166 ****
13414 HC2     2.464940   -2.003111  -31.130093 H    2185 MOH     0.0372 ****
13415 HC3     2.191275   -0.952280  -29.725779 H    2185 MOH     0.0372 ****
13416 O1      1.194192   -2.776334  -29.673453 O    2185 MOH    -0.6497 ****
13417 HO1     0.421120   -2.271330  -29.935790 H    2185 MOH     0.4215 ****
13418 HC1     5.399611  -10.832705  -23.066247 H    2186 MOH     0.0372 ****
13419 C1      5.981580  -10.590206  -23.955788 C    2186 MOH     0.1166 ****
13420 HC2     5.945207  -11.412010  -24.670673 H    2186 MOH     0.0372 ****
13421 HC3     7.008686  -10.446911  -23.618498 H    2186 MOH     0.0372 ****
13422 O1      5.515658   -9.345865  -24.487532 O    2186 MOH    -0.6497 ****
13423 HO1     5.931350   -8.668581  -23.949424 H    2186 MOH     0.4215 ****
13424 HC1     2.893911  -15.398962  -25.394750 H    2187 MOH     0.0372 ****
13425 C1      3.056723  -15.623091  -24.340454 C    2187 MOH     0.1166 ****
13426 HC2     3.624259  -16.549814  -24.248530 H    2187 MOH     0.0372 ****
13427 HC3     2.072919  -15.740666  -23.886491 H    2187 MOH     0.0372 ****
13428 O1      3.749544  -14.546540  -23.748605 O    2187 MOH    -0.6497 ****
13429 HO1     4.587856  -14.455909  -24.206811 H    2187 MOH     0.4215 ****
13430 HC1     0.829306  -21.465124  -20.635214 H    2188 MOH     0.0372 ****
13431 C1      0.436131  -21.030339  -19.716682 C    2188 MOH     0.1166 ****
13432 HC2     0.251956  -19.965628  -19.858104 H    2188 MOH     0.0372 ****
13433 HC3     1.135302  -21.174451  -18.892903 H    2188 MOH     0.0372 ****
13434 O1     -0.728385  -21.691293  -19.387878 O    2188 MOH    -0.6497 ****
13435 HO1    -1.152737  -21.241812  -18.653194 H    2188 MOH     0.4215 ****
13436 HC1     7.169189  -12.840879  -20.839568 H    2189 MOH     0.0372 ****
13437 C1      7.232698  -13.763928  -21.415860 C    2189 MOH     0.1166 ****
13438 HC2     8.264423  -13.968052  -21.701531 H    2189 MOH     0.0372 ****
13439 HC3     6.615511  -13.652068  -22.306815 H    2189 MOH     0.0372 ****
13440 O1      6.714815  -14.817209  -20.650771 O    2189 MOH    -0.6497 ****
13441 HO1     6.964807  -15.641870  -21.075035 H    2189 MOH     0.4215 ****
13442 HC1     1.781357   -7.217258  -32.170954 H    2190 MOH     0.0372 ****
13443 C1      2.652578   -7.872497  -32.190046 C    2190 MOH     0.1166 ****
13444 HC2     2.652001   -8.444045  -33.117770 H    2190 MOH     0.0372 ****
13445 HC3     2.624866   -8.581624  -31.362024 H    2190 MOH     0.0372 ****
13446 O1      3.830950   -7.087844  -32.116507 O    2190 MOH    -0.6497 ****
13447 HO1     3.801505   -6.577125  -31.304041 H    2190 MOH     0.4215 ****
13448 HC1    14.730746  -14.166869  -22.283480 H    2191 MOH     0.0372 ****
13449 C1     15.589266  -13.805161  -22.849165 C    2191 MOH     0.1166 ****
13450 HC2    15.241124  -13.285869  -23.741534 H    2191 MOH     0.0372 ****
13451 HC3    16.218578  -14.645744  -23.142615 H    2191 MOH     0.0372 ****
13452 O1     16.338666  -12.915588  -22.053670 O    2191 MOH    -0.6497 ****
13453 HO1    16.506098  -13.334043  -21.205849 H    2191 MOH     0.4215 ****
13454 HC1     0.477700   -7.904749  -27.569103 H    2192 MOH     0.0372 ****
13455 C1      0.107041   -8.301566  -26.624409 C    2192 MOH     0.1166 ****
13456 HC2     0.961519   -8.424449  -25.959021 H    2192 MOH     0.0372 ****
13457 HC3    -0.364654   -9.277279  -26.740374 H    2192 MOH     0.0372 ****
13458 O1     -0.748015   -7.366269  -26.062259 O    2192 MOH    -0.6497 ****
13459 HO1    -0.563263   -7.364636  -25.120393 H    2192 MOH     0.4215 ****
13460 HC1     0.361652  -20.959304  -15.417473 H    2193 MOH     0.0372 ****
13461 C1      1.255968  -21.401845  -14.977653 C    2193 MOH     0.1166 ****
13462 HC2     1.321786  -21.128727  -13.924771 H    2193 MOH     0.0372 ****
13463 HC3     2.146242  -21.031972  -15.486770 H    2193 MOH     0.0372 ****
13464 O1      1.204584  -22.814384  -15.093618 O    2193 MOH    -0.6497 ****
13465 HO1     2.109869  -23.122612  -15.005230 H    2193 MOH     0.4215 ****
13466 HC1    -0.234173  -12.579600  -21.830932 H    2194 MOH     0.0372 ****
13467 C1     -0.300568  -12.840062  -20.774514 C    2194 MOH     0.1166 ****
13468 HC2    -0.192604  -13.918246  -20.650771 H    2194 MOH     0.0372 ****
13469 HC3    -1.284373  -12.525303  -20.425911 H    2194 MOH     0.0372 ****
13470 O1      0.683236  -12.121137  -20.051144 O    2194 MOH    -0.6497 ****
13471 HO1     1.505961  -12.230139  -20.534098 H    2194 MOH     0.4215 ****
13472 HC1     7.312372  -10.018658  -16.982301 H    2195 MOH     0.0372 ****
13473 C1      7.750004  -10.922112  -17.407272 C    2195 MOH     0.1166 ****
13474 HC2     7.993646  -10.726969  -18.450961 H    2195 MOH     0.0372 ****
13475 HC3     7.044482  -11.748406  -17.313934 H    2195 MOH     0.0372 ****
13476 O1      8.886229  -11.219725  -16.659860 O    2195 MOH    -0.6497 ****
13477 HO1     9.513809  -10.493859  -16.707943 H    2195 MOH     0.4215 ****
13478 HC1     4.092490  -17.216484  -17.615161 H    2196 MOH     0.0372 ****
13479 C1      3.681994  -18.173009  -17.292013 C    2196 MOH     0.1166 ****
13480 HC2     4.460839  -18.935617  -17.270800 H    2196 MOH     0.0372 ****
13481 HC3     2.896797  -18.451843  -17.994170 H    2196 MOH     0.0372 ****
13482 O1      3.086168  -18.028490  -16.036192 O    2196 MOH    -0.6497 ****
13483 HO1     3.706820  -17.579416  -15.457778 H    2196 MOH     0.4215 ****
13484 HC1     0.475391   -6.490985  -30.644311 H    2197 MOH     0.0372 ****
13485 C1      1.041771   -6.186023  -29.763963 C    2197 MOH     0.1166 ****
13486 HC2     1.427441   -7.079679  -29.272524 H    2197 MOH     0.0372 ****
13487 HC3     0.387633   -5.662241  -29.067463 H    2197 MOH     0.0372 ****
13488 O1      2.136427   -5.371568  -30.169135 O    2197 MOH    -0.6497 ****
13489 HO1     1.785398   -4.496284  -30.345912 H    2197 MOH     0.4215 ****
13490 HC1     9.293261  -12.232589  -20.784414 H    2198 MOH     0.0372 ****
13491 C1     10.218754  -11.932934  -20.290853 C    2198 MOH     0.1166 ****
13492 HC2    10.662736  -12.786990  -19.778908 H    2198 MOH     0.0372 ****
13493 HC3     9.972802  -11.180941  -19.541320 H    2198 MOH     0.0372 ****
13494 O1     11.100945  -11.433647  -21.316865 O    2198 MOH    -0.6497 ****
13495 HO1    10.910419  -10.495492  -21.391818 H    2198 MOH     0.4215 ****
13496 HC1    -1.806875  -20.464507  -21.582030 H    2199 MOH     0.0372 ****
13497 C1     -1.323633  -20.615151  -22.547231 C    2199 MOH     0.1166 ****
13498 HC2    -0.868104  -21.604745  -22.567030 H    2199 MOH     0.0372 ****
13499 HC3    -0.563263  -19.846011  -22.685824 H    2199 MOH     0.0372 ****
13500 O1     -2.354781  -20.565753  -23.533645 O    2199 MOH    -0.6497 ****
13501 HO1    -2.867468  -19.764770  -23.403537 H    2199 MOH     0.4215 ****
13502 HC1     7.710167   -8.363620  -25.436469 H    2200 MOH     0.0372 ****
13503 C1      8.655866   -8.020691  -25.016448 C    2200 MOH     0.1166 ****
13504 HC2     8.542128   -7.046202  -24.540565 H    2200 MOH     0.0372 ****
13505 HC3     9.385637   -7.907198  -25.818307 H    2200 MOH     0.0372 ****
13506 O1      9.097539   -8.942924  -24.044176 O    2200 MOH    -0.6497 ****
13507 HO1     9.928924   -9.331168  -24.326312 H    2200 MOH     0.4215 ****
13508 HC1     7.628183  -16.429381  -30.365711 H    2201 MOH     0.0372 ****
13509 C1      8.409915  -15.756180  -30.717143 C    2201 MOH     0.1166 ****
13510 HC2     8.969368  -16.190964  -31.545165 H    2201 MOH     0.0372 ****
13511 HC3     9.095230  -15.551239  -29.895485 H    2201 MOH     0.0372 ****
13512 O1      7.836029  -14.556746  -31.162620 O    2201 MOH    -0.6497 ****
13513 HO1     8.031173  -13.913347  -30.476726 H    2201 MOH     0.4215 ****
13514 HC1     7.026468   -4.229452  -26.002862 H    2202 MOH     0.0372 ****
13515 C1      6.225684   -4.623412  -25.377072 C    2202 MOH     0.1166 ****
13516 HC2     5.659880   -5.353768  -25.956193 H    2202 MOH     0.0372 ****
13517 HC3     5.553071   -3.846516  -25.015741 H    2202 MOH     0.0372 ****
13518 O1      6.722782   -5.364383  -24.332676 O    2202 MOH    -0.6497 ****
13519 HO1     7.267224   -4.768340  -23.813659 H    2202 MOH     0.4215 ****
13520 HC1    19.135813   -2.990419  -21.496470 H    2203 MOH     0.0372 ****
13521 C1     19.197012   -2.210665  -20.738452 C    2203 MOH     0.1166 ****
13522 HC2    19.557279   -2.656472  -19.810728 H    2203 MOH     0.0372 ****
13523 HC3    18.203970   -1.785270  -20.592788 H    2203 MOH     0.0372 ****
13524 O1     20.068234   -1.188003  -21.166251 O    2203 MOH    -0.6497 ****
13525 HO1    20.955044   -1.548078  -21.232719 H    2203 MOH     0.4215 ****
13526 HC1    25.394290    1.758733  -27.277068 H    2204 MOH     0.0372 ****
13527 C1     25.827880    1.951835  -26.296311 C    2204 MOH     0.1166 ****
13528 HC2    26.113668    3.002666  -26.245399 H    2204 MOH     0.0372 ****
13529 HC3    26.715845    1.332522  -26.169739 H    2204 MOH     0.0372 ****
13530 O1     24.873520    1.637075  -25.288684 O    2204 MOH    -0.6497 ****
13531 HO1    25.074438    0.745461  -24.995942 H    2204 MOH     0.4215 ****
13532 HC1    21.387479   -8.623021  -28.272674 H    2205 MOH     0.0372 ****
13533 C1     20.538774   -8.188236  -27.744466 C    2205 MOH     0.1166 ****
13534 HC2    20.402520   -7.161083  -28.082463 H    2205 MOH     0.0372 ****
13535 HC3    20.703319   -8.200484  -26.666835 H    2205 MOH     0.0372 ****
13536 O1     19.373104   -8.886341  -28.078220 O    2205 MOH    -0.6497 ****
13537 HO1    19.400239   -9.686916  -27.548597 H    2205 MOH     0.4215 ****
13538 HC1    13.577662    4.860196  -25.425156 H    2206 MOH     0.0372 ****
13539 C1     14.181570    5.411739  -24.704614 C    2206 MOH     0.1166 ****
13540 HC2    14.993325    4.776505  -24.351060 H    2206 MOH     0.0372 ****
13541 HC3    13.533206    5.697513  -23.875885 H    2206 MOH     0.0372 ****
13542 O1     14.686175    6.535647  -25.360102 O    2206 MOH    -0.6497 ****
13543 HO1    15.499084    6.797334  -24.920988 H    2206 MOH     0.4215 ****
13544 HC1    11.639497   -0.461321  -21.040386 H    2207 MOH     0.0372 ****
13545 C1     10.619319   -0.754035  -20.792192 C    2207 MOH     0.1166 ****
13546 HC2    10.458238   -0.696472  -19.716683 H    2207 MOH     0.0372 ****
13547 HC3    10.410896   -1.776288  -21.108976 H    2207 MOH     0.0372 ****
13548 O1      9.733087    0.138396  -21.393233 O    2207 MOH    -0.6497 ****
13549 HO1    10.184574    0.514801  -22.152665 H    2207 MOH     0.4215 ****
13550 HC1     6.238385    2.325382  -24.836136 H    2208 MOH     0.0372 ****
13551 C1      7.278771    2.352735  -25.162112 C    2208 MOH     0.1166 ****
13552 HC2     7.863049    1.713010  -24.499553 H    2208 MOH     0.0372 ****
13553 HC3     7.619985    3.386419  -25.108372 H    2208 MOH     0.0372 ****
13554 O1      7.345743    1.870593  -26.485109 O    2208 MOH    -0.6497 ****
13555 HO1     6.751072    1.117784  -26.528949 H    2208 MOH     0.4215 ****
13556 HC1     9.118786   -2.356818  -28.996045 H    2209 MOH     0.0372 ****
13557 C1     10.033309   -2.050631  -29.503747 C    2209 MOH     0.1166 ****
13558 HC2    10.628557   -1.396209  -28.866644 H    2209 MOH     0.0372 ****
13559 HC3     9.757913   -1.504395  -30.406016 H    2209 MOH     0.0372 ****
13560 O1     10.735367   -3.190052  -29.901849 O    2209 MOH    -0.6497 ****
13561 HO1    11.670097   -2.991235  -29.812046 H    2209 MOH     0.4215 ****
13562 HC1     6.064603   -2.694439  -33.851747 H    2210 MOH     0.0372 ****
13563 C1      6.107327   -2.452756  -32.789673 C    2210 MOH     0.1166 ****
13564 HC2     7.144248   -2.514810  -32.458747 H    2210 MOH     0.0372 ****
13565 HC3     5.509769   -3.154535  -32.207724 H    2210 MOH     0.0372 ****
13566 O1      5.673737   -1.159017  -32.520265 O    2210 MOH    -0.6497 ****
13567 HO1     4.904129   -0.967549  -33.061202 H    2210 MOH     0.4215 ****
13568 HC1     3.461331    1.243116  -26.136505 H    2211 MOH     0.0372 ****
13569 C1      3.026586    0.357625  -25.673350 C    2211 MOH     0.1166 ****
13570 HC2     2.614358   -0.317209  -26.423590 H    2211 MOH     0.0372 ****
13571 HC3     2.204439    0.643807  -25.016448 H    2211 MOH     0.0372 ****
13572 O1      3.931871   -0.344970  -24.877855 O    2211 MOH    -0.6497 ****
13573 HO1     3.405328   -1.062670  -24.517231 H    2211 MOH     0.4215 ****
13574 HC1    17.124902   -3.852639  -19.417576 H    2212 MOH     0.0372 ****
13575 C1     17.424547   -4.899796  -19.432426 C    2212 MOH     0.1166 ****
13576 HC2    18.058477   -5.088407  -20.299338 H    2212 MOH     0.0372 ****
13577 HC3    16.556789   -5.553810  -19.511621 H    2212 MOH     0.0372 ****
13578 O1     18.129491   -5.210881  -18.238829 O    2212 MOH    -0.6497 ****
13579 HO1    18.563659   -6.059221  -18.357623 H    2212 MOH     0.4215 ****
13580 HC1     9.373975   -0.585020  -33.464960 H    2213 MOH     0.0372 ****
13581 C1      8.833575    0.284549  -33.838312 C    2213 MOH     0.1166 ****
13582 HC2     8.390170   -0.044908  -34.778057 H    2213 MOH     0.0372 ****
13583 HC3     9.556417    1.087573  -33.984683 H    2213 MOH     0.0372 ****
13584 O1      7.842264    0.622987  -32.844827 O    2213 MOH    -0.6497 ****
13585 HO1     7.206602   -0.091040  -32.762096 H    2213 MOH     0.4215 ****
13586 HC1    15.032007   13.969032  -22.510461 H    2214 MOH     0.0372 ****
13587 C1     14.690216   13.299504  -23.299593 C    2214 MOH     0.1166 ****
13588 HC2    14.191963   12.423404  -22.883814 H    2214 MOH     0.0372 ****
13589 HC3    15.562592   12.981479  -23.870228 H    2214 MOH     0.0372 ****
13590 O1     13.909061   14.029452  -24.221660 O    2214 MOH    -0.6497 ****
13591 HO1    13.936197   13.542412  -25.048268 H    2214 MOH     0.4215 ****
13592 HC1    17.798670   -2.736897  -26.841490 H    2215 MOH     0.0372 ****
13593 C1     17.658374   -2.891215  -27.910636 C    2215 MOH     0.1166 ****
13594 HC2    17.462075   -1.936730  -28.399954 H    2215 MOH     0.0372 ****
13595 HC3    16.824103   -3.570131  -28.086705 H    2215 MOH     0.0372 ****
13596 O1     18.833859   -3.445616  -28.462179 O    2215 MOH    -0.6497 ****
13597 HO1    19.480491   -3.546453  -27.760022 H    2215 MOH     0.4215 ****
13598 HC1    20.561868    5.299471  -25.551021 H    2216 MOH     0.0372 ****
13599 C1     21.044533    4.333555  -25.698099 C    2216 MOH     0.1166 ****
13600 HC2    20.271461    3.579521  -25.845884 H    2216 MOH     0.0372 ****
13601 HC3    21.609182    4.091056  -24.798659 H    2216 MOH     0.0372 ****
13602 O1     21.952705    4.361316  -26.820984 O    2216 MOH    -0.6497 ****
13603 HO1    22.664001    4.965524  -26.591882 H    2216 MOH     0.4215 ****
13604 HC1    15.254865   -2.943062  -34.210250 H    2217 MOH     0.0372 ****
13605 C1     15.093784   -3.955926  -33.841848 C    2217 MOH     0.1166 ****
13606 HC2    14.342651   -3.911019  -33.054131 H    2217 MOH     0.0372 ****
13607 HC3    16.018699   -4.356418  -33.426776 H    2217 MOH     0.0372 ****
13608 O1     14.642296   -4.802633  -34.898265 O    2217 MOH    -0.6497 ****
13609 HO1    15.047019   -5.660771  -34.748358 H    2217 MOH     0.4215 ****
13610 HC1    24.260374   -8.825920  -26.596124 H    2218 MOH     0.0372 ****
13611 C1     24.094097   -8.738963  -25.522029 C    2218 MOH     0.1166 ****
13612 HC2    24.166266   -7.682825  -25.262521 H    2218 MOH     0.0372 ****
13613 HC3    24.881026   -9.292956  -25.009377 H    2218 MOH     0.0372 ****
13614 O1     22.768501   -9.257847  -25.287977 O    2218 MOH    -0.6497 ****
13615 HO1    22.457309   -8.909203  -24.449348 H    2218 MOH     0.4215 ****
13616 HC1    23.126458    8.571173  -17.415050 H    2219 MOH     0.0372 ****
13617 C1     22.415162    7.745286  -17.425657 C    2219 MOH     0.1166 ****
13618 HC2    22.777161    7.014114  -18.149027 H    2219 MOH     0.0372 ****
13619 HC3    21.426161    8.117609  -17.695771 H    2219 MOH     0.0372 ****
13620 O1     22.351654    7.171698  -16.140843 O    2219 MOH    -0.6497 ****
13621 HO1    22.075681    7.855514  -15.526368 H    2219 MOH     0.4215 ****
13622 HC1     7.633841   -0.255972  -23.397173 H    2220 MOH     0.0372 ****
13623 C1      7.242397   -1.025112  -24.061854 C    2220 MOH     0.1166 ****
13624 HC2     7.741805   -0.991227  -25.029883 H    2220 MOH     0.0372 ****
13625 HC3     6.170835   -0.862629  -24.186305 H    2220 MOH     0.0372 ****
13626 O1      7.383271   -2.291906  -23.477076 O    2220 MOH    -0.6497 ****
13627 HO1     6.936979   -2.292314  -22.627841 H    2220 MOH     0.4215 ****
13628 HC1    23.853919   -2.687907  -27.777700 H    2221 MOH     0.0372 ****
13629 C1     23.837176   -3.695055  -28.195600 C    2221 MOH     0.1166 ****
13630 HC2    24.338894   -4.353560  -27.487786 H    2221 MOH     0.0372 ****
13631 HC3    24.388546   -3.723633  -29.136052 H    2221 MOH     0.0372 ****
13632 O1     22.494260   -4.130656  -28.344799 O    2221 MOH    -0.6497 ****
13633 HO1    22.002357   -3.869786  -27.562032 H    2221 MOH     0.4215 ****
13634 HC1    17.988618    1.103087  -28.646027 H    2222 MOH     0.0372 ****
13635 C1     16.925139    1.303945  -28.777549 C    2222 MOH     0.1166 ****
13636 HC2    16.343170    0.382937  -28.750679 H    2222 MOH     0.0372 ****
13637 HC3    16.760017    1.774655  -29.746992 H    2222 MOH     0.0372 ****
13638 O1     16.474806    2.194334  -27.798206 O    2222 MOH    -0.6497 ****
13639 HO1    16.585080    3.088806  -28.128425 H    2222 MOH     0.4215 ****
13640 HC1    17.469003   -7.225178  -26.239035 H    2223 MOH     0.0372 ****
13641 C1     17.283096   -6.639342  -27.139182 C    2223 MOH     0.1166 ****
13642 HC2    17.300994   -7.263146  -28.032965 H    2223 MOH     0.0372 ****
13643 HC3    18.030765   -5.853872  -27.248077 H    2223 MOH     0.0372 ****
13644 O1     16.040638   -6.051056  -27.009782 O    2223 MOH    -0.6497 ****
13645 HO1    15.742148   -5.940421  -27.915586 H    2223 MOH     0.4215 ****
13646 HC1    18.653726   -3.650148  -24.819872 H    2224 MOH     0.0372 ****
13647 C1     19.407745   -4.403774  -25.047560 C    2224 MOH     0.1166 ****
13648 HC2    18.921616   -5.293348  -25.447076 H    2224 MOH     0.0372 ****
13649 HC3    19.896761   -4.693223  -24.117715 H    2224 MOH     0.0372 ****
13650 O1     20.341898   -3.861621  -25.992255 O    2224 MOH    -0.6497 ****
13651 HO1    20.558404   -2.963883  -25.732747 H    2224 MOH     0.4215 ****
13652 HC1    14.590334  -10.279692  -27.554254 H    2225 MOH     0.0372 ****
13653 C1     14.183302   -9.279076  -27.699211 C    2225 MOH     0.1166 ****
13654 HC2    13.137721   -9.324799  -28.004681 H    2225 MOH     0.0372 ****
13655 HC3    14.739868   -8.821429  -28.515919 H    2225 MOH     0.0372 ****
13656 O1     14.338032   -8.455231  -26.542384 O    2225 MOH    -0.6497 ****
13657 HO1    14.620934   -7.575047  -26.802600 H    2225 MOH     0.4215 ****
13658 HC1    13.996241   -5.874285  -25.331817 H    2226 MOH     0.0372 ****
13659 C1     14.084576   -4.888365  -24.875734 C    2226 MOH     0.1166 ****
13660 HC2    13.483554   -4.856522  -23.967808 H    2226 MOH     0.0372 ****
13661 HC3    13.732392   -4.153110  -25.599104 H    2226 MOH     0.0372 ****
13662 O1     15.424605   -4.684649  -24.568142 O    2226 MOH    -0.6497 ****
13663 HO1    15.909580   -5.151277  -25.251914 H    2226 MOH     0.4215 ****
13664 HC1    18.292304    8.225795  -20.533391 H    2227 MOH     0.0372 ****
13665 C1     18.249580    9.099854  -21.183222 C    2227 MOH     0.1166 ****
13666 HC2    19.050365    9.800000  -20.944927 H    2227 MOH     0.0372 ****
13667 HC3    17.310231    9.615880  -20.988061 H    2227 MOH     0.0372 ****
13668 O1     18.250158    8.745495  -22.574808 O    2227 MOH    -0.6497 ****
13669 HO1    18.359277    9.537905  -23.105845 H    2227 MOH     0.4215 ****
13670 HC1    15.959809  -10.711619  -24.517937 H    2228 MOH     0.0372 ****
13671 C1     17.035990  -10.703454  -24.687643 C    2228 MOH     0.1166 ****
13672 HC2    17.456301   -9.843275  -24.167920 H    2228 MOH     0.0372 ****
13673 HC3    17.239795  -10.643033  -25.756789 H    2228 MOH     0.0372 ****
13674 O1     17.629506  -11.848182  -24.187011 O    2228 MOH    -0.6497 ****
13675 HO1    17.167626  -12.109461  -23.387981 H    2228 MOH     0.4215 ****
13676 HC1    11.775174    0.941829  -27.648299 H    2229 MOH     0.0372 ****
13677 C1     12.806899    0.658096  -27.854067 C    2229 MOH     0.1166 ****
13678 HC2    13.077677   -0.167790  -27.197165 H    2229 MOH     0.0372 ****
13679 HC3    13.455264    1.508885  -27.643350 H    2229 MOH     0.0372 ****
13680 O1     12.944886    0.338846  -29.215955 O    2229 MOH    -0.6497 ****
13681 HO1    12.648128    1.131664  -29.668503 H    2229 MOH     0.4215 ****
13682 HC1    23.400699   -3.620346  -20.005182 H    2230 MOH     0.0372 ****
13683 C1     23.475755   -2.578496  -20.314895 C    2230 MOH     0.1166 ****
13684 HC2    24.514408   -2.353960  -20.558139 H    2230 MOH     0.0372 ****
13685 HC3    23.113756   -1.977147  -19.479802 H    2230 MOH     0.0372 ****
13686 O1     22.587790   -2.420913  -21.391111 O    2230 MOH    -0.6497 ****
13687 HO1    22.954985   -2.941429  -22.108825 H    2230 MOH     0.4215 ****
13688 HC1    13.125597   -7.532998  -19.456467 H    2231 MOH     0.0372 ****
13689 C1     14.118062   -7.512177  -19.906894 C    2231 MOH     0.1166 ****
13690 HC2    14.641141   -6.600967  -19.616980 H    2231 MOH     0.0372 ****
13691 HC3    14.058017   -7.567699  -20.993010 H    2231 MOH     0.0372 ****
13692 O1     14.853029   -8.576888  -19.458588 O    2231 MOH    -0.6497 ****
13693 HO1    14.406160   -9.372973  -19.754159 H    2231 MOH     0.4215 ****
13694 HC1    11.065611    4.696488  -26.451168 H    2232 MOH     0.0372 ****
13695 C1     10.826011    4.063703  -25.596983 C    2232 MOH     0.1166 ****
13696 HC2     9.780429    4.188219  -25.316261 H    2232 MOH     0.0372 ****
13697 HC3    11.458209    4.371114  -24.763304 H    2232 MOH     0.0372 ****
13698 O1     11.127965    2.713626  -25.913059 O    2232 MOH    -0.6497 ****
13699 HO1    10.665507    2.440508  -26.708554 H    2232 MOH     0.4215 ****
13700 HC1    20.300906   -6.930015  -23.930332 H    2233 MOH     0.0372 ****
13701 C1     20.552053   -7.450531  -23.006143 C    2233 MOH     0.1166 ****
13702 HC2    19.885214   -8.304179  -22.885228 H    2233 MOH     0.0372 ****
13703 HC3    20.429078   -6.780596  -22.155494 H    2233 MOH     0.0372 ****
13704 O1     21.892083   -7.881233  -23.103017 O    2233 MOH    -0.6497 ****
13705 HO1    22.082031   -8.436859  -22.344291 H    2233 MOH     0.4215 ****
13706 HC1    11.827136   -0.701779  -24.709564 H    2234 MOH     0.0372 ****
13707 C1     10.817350   -0.302512  -24.617640 C    2234 MOH     0.1166 ****
13708 HC2    10.204782   -1.043891  -24.104280 H    2234 MOH     0.0372 ****
13709 HC3    10.416092   -0.110635  -25.613246 H    2234 MOH     0.0372 ****
13710 O1     10.885478    0.886307  -23.855379 O    2234 MOH    -0.6497 ****
13711 HO1    11.219763    1.579512  -24.429549 H    2234 MOH     0.4215 ****
13712 HC1     7.570910    6.534422  -26.285705 H    2235 MOH     0.0372 ****
13713 C1      8.433471    6.997376  -26.765123 C    2235 MOH     0.1166 ****
13714 HC2     9.220400    7.112093  -26.019125 H    2235 MOH     0.0372 ****
13715 HC3     8.116506    7.989419  -27.087564 H    2235 MOH     0.0372 ****
13716 O1      8.816254    6.209865  -27.924071 O    2235 MOH    -0.6497 ****
13717 HO1     8.122279    6.255997  -28.585216 H    2235 MOH     0.4215 ****
13718 HC1    14.257203    1.971839  -20.024981 H    2236 MOH     0.0372 ****
13719 C1     14.865153    2.842633  -20.273176 C    2236 MOH     0.1166 ****
13720 HC2    15.914776    2.573189  -20.387727 H    2236 MOH     0.0372 ****
13721 HC3    14.808573    3.564824  -19.457881 H    2236 MOH     0.0372 ****
13722 O1     14.470245    3.404791  -21.483035 O    2236 MOH    -0.6497 ****
13723 HO1    14.751992    2.806299  -22.178828 H    2236 MOH     0.4215 ****
13724 HC1    13.316700   -5.772223  -29.823360 H    2237 MOH     0.0372 ****
13725 C1     14.173488   -6.030236  -30.447028 C    2237 MOH     0.1166 ****
13726 HC2    14.359394   -5.237009  -31.170398 H    2237 MOH     0.0372 ****
13727 HC3    13.927536   -6.934097  -31.004228 H    2237 MOH     0.0372 ****
13728 O1     15.336848   -6.220888  -29.645876 O    2237 MOH    -0.6497 ****
13729 HO1    16.033133   -6.568715  -30.207319 H    2237 MOH     0.4215 ****
13730 HC1    22.711921   -0.060421  -23.453035 H    2238 MOH     0.0372 ****
13731 C1     22.089537    0.834051  -23.462227 C    2238 MOH     0.1166 ****
13732 HC2    22.533519    1.621154  -22.852701 H    2238 MOH     0.0372 ****
13733 HC3    21.117856    0.556034  -23.052812 H    2238 MOH     0.0372 ****
13734 O1     21.909981    1.286798  -24.783810 O    2238 MOH    -0.6497 ****
13735 HO1    22.767346    1.562366  -25.116857 H    2238 MOH     0.4215 ****
13736 HC1    18.340802    0.119208  -25.612539 H    2239 MOH     0.0372 ****
13737 C1     18.794599    0.998575  -25.155748 C    2239 MOH     0.1166 ****
13738 HC2    19.631757    1.315376  -25.778002 H    2239 MOH     0.0372 ****
13739 HC3    19.098285    0.749544  -24.138928 H    2239 MOH     0.0372 ****
13740 O1     17.844280    1.996334  -25.191103 O    2239 MOH    -0.6497 ****
13741 HO1    17.516346    2.051856  -26.091957 H    2239 MOH     0.4215 ****
13742 HC1    10.173605   11.591802  -27.941749 H    2240 MOH     0.0372 ****
13743 C1      9.266010   11.528115  -27.342122 C    2240 MOH     0.1166 ****
13744 HC2     8.655174   10.681408  -27.654663 H    2240 MOH     0.0372 ****
13745 HC3     8.716950   12.460146  -27.474351 H    2240 MOH     0.0372 ****
13746 O1      9.637824   11.344812  -26.017711 O    2240 MOH    -0.6497 ****
13747 HO1    10.164945   10.542195  -26.019125 H    2240 MOH     0.4215 ****
13748 HC1    25.703750    3.438267  -20.235699 H    2241 MOH     0.0372 ****
13749 C1     25.450870    4.302937  -19.621930 C    2241 MOH     0.1166 ****
13750 HC2    26.258583    4.486240  -18.914116 H    2241 MOH     0.0372 ****
13751 HC3    24.532883    4.070235  -19.083115 H    2241 MOH     0.0372 ****
13752 O1     25.258613    5.411331  -20.478236 O    2241 MOH    -0.6497 ****
13753 HO1    24.573298    5.140254  -21.093419 H    2241 MOH     0.4215 ****
13754 HC1    21.963097   -3.821204  -23.769818 H    2242 MOH     0.0372 ****
13755 C1     22.785821   -4.511960  -23.955080 C    2242 MOH     0.1166 ****
13756 HC2    23.061218   -4.390711  -25.002306 H    2242 MOH     0.0372 ****
13757 HC3    22.477516   -5.551769  -23.848307 H    2242 MOH     0.0372 ****
13758 O1     23.875859   -4.201283  -23.070490 O    2242 MOH    -0.6497 ****
13759 HO1    24.486695   -4.941846  -23.057762 H    2242 MOH     0.4215 ****
13760 HC1    26.797251   -2.863454  -24.834721 H    2243 MOH     0.0372 ****
13761 C1     25.965867   -2.180046  -25.004427 C    2243 MOH     0.1166 ****
13762 HC2    25.043838   -2.640142  -24.647338 H    2243 MOH     0.0372 ****
13763 HC3    25.895430   -1.991844  -26.075694 H    2243 MOH     0.0372 ****
13764 O1     26.293802   -0.959384  -24.352474 O    2243 MOH    -0.6497 ****
13765 HO1    26.906948   -1.156568  -23.640418 H    2243 MOH     0.4215 ****
13766 HC1    19.303822   -0.634010  -16.351561 H    2244 MOH     0.0372 ****
13767 C1     18.412393   -0.007349  -16.383381 C    2244 MOH     0.1166 ****
13768 HC2    17.523851   -0.638092  -16.423686 H    2244 MOH     0.0372 ****
13769 HC3    18.421631    0.610739  -17.281407 H    2244 MOH     0.0372 ****
13770 O1     18.422785    0.840175  -15.261910 O    2244 MOH    -0.6497 ****
13771 HO1    19.178537    1.420296  -15.378582 H    2244 MOH     0.4215 ****
13772 HC1    20.960817    0.627886  -17.765068 H    2245 MOH     0.0372 ****
13773 C1     21.185406    1.693822  -17.714863 C    2245 MOH     0.1166 ****
13774 HC2    20.826295    2.241691  -18.586019 H    2245 MOH     0.0372 ****
13775 HC3    22.271402    1.740362  -17.786988 H    2245 MOH     0.0372 ****
13776 O1     20.824562    2.291906  -16.448435 O    2245 MOH    -0.6497 ****
13777 HO1    20.752394    3.240675  -16.574300 H    2245 MOH     0.4215 ****
13778 HC1    20.047449  -12.823079  -26.397427 H    2246 MOH     0.0372 ****
13779 C1     20.628841  -12.065778  -25.870633 C    2246 MOH     0.1166 ****
13780 HC2    21.682505  -12.309911  -26.007811 H    2246 MOH     0.0372 ****
13781 HC3    20.399055  -12.055164  -24.805730 H    2246 MOH     0.0372 ****
13782 O1     20.500669  -10.805516  -26.422883 O    2246 MOH    -0.6497 ****
13783 HO1    21.299144  -10.329090  -26.181760 H    2246 MOH     0.4215 ****
13784 HC1    15.202903   -1.466020  -21.315451 H    2247 MOH     0.0372 ****
13785 C1     15.548158   -2.309052  -21.912956 C    2247 MOH     0.1166 ****
13786 HC2    16.288321   -2.841000  -21.314037 H    2247 MOH     0.0372 ****
13787 HC3    15.989831   -1.923258  -22.831488 H    2247 MOH     0.0372 ****
13788 O1     14.495649   -3.226795  -22.246711 O    2247 MOH    -0.6497 ****
13789 HO1    14.774509   -3.739963  -23.008265 H    2247 MOH     0.4215 ****
13790 HC1    21.235636    0.235151  -27.892251 H    2248 MOH     0.0372 ****
13791 C1     21.899011   -0.586653  -27.622843 C    2248 MOH     0.1166 ****
13792 HC2    22.915148   -0.200450  -27.545062 H    2248 MOH     0.0372 ****
13793 HC3    21.885155   -1.369265  -28.381569 H    2248 MOH     0.0372 ****
13794 O1     21.520847   -1.013681  -26.335909 O    2248 MOH    -0.6497 ****
13795 HO1    21.574541   -0.244541  -25.764567 H    2248 MOH     0.4215 ****
13796 HC1    15.721941   -0.801800  -32.769874 H    2249 MOH     0.0372 ****
13797 C1     15.091474   -1.115335  -31.938316 C    2249 MOH     0.1166 ****
13798 HC2    14.115175   -1.428053  -32.308840 H    2249 MOH     0.0372 ****
13799 HC3    14.921156   -0.288224  -31.248180 H    2249 MOH     0.0372 ****
13800 O1     15.693651   -2.169432  -31.242523 O    2249 MOH    -0.6497 ****
13801 HO1    15.042977   -2.523791  -30.632997 H    2249 MOH     0.4215 ****
13802 HC1    22.160551    8.645474  -21.858509 H    2250 MOH     0.0372 ****
13803 C1     21.848782    8.226611  -20.901086 C    2250 MOH     0.1166 ****
13804 HC2    21.321661    8.972889  -20.308531 H    2250 MOH     0.0372 ****
13805 HC3    22.741365    7.893072  -20.372878 H    2250 MOH     0.0372 ****
13806 O1     21.034141    7.112502  -21.128068 O    2250 MOH    -0.6497 ****
13807 HO1    20.348249    7.353776  -21.753857 H    2250 MOH     0.4215 ****
13808 HC1     7.722176   -6.137197  -29.573044 H    2251 MOH     0.0372 ****
13809 C1      8.365921   -5.352952  -29.969731 C    2251 MOH     0.1166 ****
13810 HC2     8.399985   -4.551560  -29.232218 H    2251 MOH     0.0372 ****
13811 HC3     7.966972   -4.912860  -30.884727 H    2251 MOH     0.0372 ****
13812 O1      9.677661   -5.817538  -30.200248 O    2251 MOH    -0.6497 ****
13813 HO1    10.119911   -5.030436  -30.525517 H    2251 MOH     0.4215 ****
13814 HC1    16.997885    5.569731  -23.066247 H    2252 MOH     0.0372 ****
13815 C1     17.579854    5.812231  -23.955788 C    2252 MOH     0.1166 ****
13816 HC2    17.543481    4.990427  -24.670673 H    2252 MOH     0.0372 ****
13817 HC3    18.606960    5.955526  -23.618498 H    2252 MOH     0.0372 ****
13818 O1     17.113932    7.056572  -24.487532 O    2252 MOH    -0.6497 ****
13819 HO1    17.529625    7.733855  -23.949424 H    2252 MOH     0.4215 ****
13820 HC1    14.492185    1.003474  -25.394750 H    2253 MOH     0.0372 ****
13821 C1     14.654998    0.779346  -24.340454 C    2253 MOH     0.1166 ****
13822 HC2    15.222533   -0.147378  -24.248530 H    2253 MOH     0.0372 ****
13823 HC3    13.671193    0.661770  -23.886491 H    2253 MOH     0.0372 ****
13824 O1     15.347818    1.855897  -23.748605 O    2253 MOH    -0.6497 ****
13825 HO1    16.186130    1.946528  -24.206811 H    2253 MOH     0.4215 ****
13826 HC1    12.427580   -5.062687  -20.635214 H    2254 MOH     0.0372 ****
13827 C1     12.034405   -4.627903  -19.716682 C    2254 MOH     0.1166 ****
13828 HC2    11.850230   -3.563191  -19.858104 H    2254 MOH     0.0372 ****
13829 HC3    12.733576   -4.772014  -18.892903 H    2254 MOH     0.0372 ****
13830 O1     10.869889   -5.288857  -19.387878 O    2254 MOH    -0.6497 ****
13831 HO1    10.445537   -4.839375  -18.653194 H    2254 MOH     0.4215 ****
13832 HC1    15.238699  -10.626703  -30.010743 H    2255 MOH     0.0372 ****
13833 C1     16.273888  -10.322558  -30.167014 C    2255 MOH     0.1166 ****
13834 HC2    16.862785  -11.225195  -30.334598 H    2255 MOH     0.0372 ****
13835 HC3    16.646856   -9.765708  -29.308586 H    2255 MOH     0.0372 ****
13836 O1     16.271578   -9.590977  -31.343639 O    2255 MOH    -0.6497 ****
13837 HO1    16.908973   -8.881850  -31.234038 H    2255 MOH     0.4215 ****
13838 HC1    18.767464    3.561558  -20.839568 H    2256 MOH     0.0372 ****
13839 C1     18.830972    2.638509  -21.415860 C    2256 MOH     0.1166 ****
13840 HC2    19.862697    2.434384  -21.701531 H    2256 MOH     0.0372 ****
13841 HC3    18.213785    2.750369  -22.306815 H    2256 MOH     0.0372 ****
13842 O1     18.313089    1.585228  -20.650771 O    2256 MOH    -0.6497 ****
13843 HO1    18.563082    0.760566  -21.075035 H    2256 MOH     0.4215 ****
13844 HC1     6.716431    2.869169  -29.322021 H    2257 MOH     0.0372 ****
13845 C1      6.550155    3.939596  -29.203227 C    2257 MOH     0.1166 ****
13846 HC2     6.903493    4.260479  -28.223177 H    2257 MOH     0.0372 ****
13847 HC3     5.483211    4.152701  -29.275352 H    2257 MOH     0.0372 ****
13848 O1      7.237201    4.654030  -30.212976 O    2257 MOH    -0.6497 ****
13849 HO1     7.146557    4.124124  -31.007764 H    2257 MOH     0.4215 ****
13850 HC1     9.194419    2.420096  -29.645876 H    2258 MOH     0.0372 ****
13851 C1      9.461732    1.415397  -29.317071 C    2258 MOH     0.1166 ****
13852 HC2    10.406277    1.125949  -29.777398 H    2258 MOH     0.0372 ****
13853 HC3     8.699052    0.701779  -29.626784 H    2258 MOH     0.0372 ****
13854 O1      9.629164    1.423153  -27.888009 O    2258 MOH    -0.6497 ****
13855 HO1     8.800666    1.610948  -27.441117 H    2258 MOH     0.4215 ****
13856 HC1    26.329020    2.235567  -22.283480 H    2259 MOH     0.0372 ****
13857 C1     27.187540    2.597275  -22.849165 C    2259 MOH     0.1166 ****
13858 HC2    26.839398    3.116567  -23.741534 H    2259 MOH     0.0372 ****
13859 HC3    27.816852    1.756692  -23.142615 H    2259 MOH     0.0372 ****
13860 O1     27.936941    3.486849  -22.053670 O    2259 MOH    -0.6497 ****
13861 HO1    28.104372    3.068394  -21.205849 H    2259 MOH     0.4215 ****
13862 HC1    12.075974    8.497688  -27.569103 H    2260 MOH     0.0372 ****
13863 C1     11.705315    8.100871  -26.624409 C    2260 MOH     0.1166 ****
13864 HC2    12.559793    7.977988  -25.959021 H    2260 MOH     0.0372 ****
13865 HC3    11.233620    7.125157  -26.740374 H    2260 MOH     0.0372 ****
13866 O1     10.850259    9.036167  -26.062259 O    2260 MOH    -0.6497 ****
13867 HO1    11.035011    9.037800  -25.120393 H    2260 MOH     0.4215 ****
13868 HC1    11.959926   -4.556868  -15.417473 H    2261 MOH     0.0372 ****
13869 C1     12.854242   -4.999409  -14.977653 C    2261 MOH     0.1166 ****
13870 HC2    12.920060   -4.726291  -13.924771 H    2261 MOH     0.0372 ****
13871 HC3    13.744516   -4.629536  -15.486770 H    2261 MOH     0.0372 ****
13872 O1     12.802858   -6.411948  -15.093618 O    2261 MOH    -0.6497 ****
13873 HO1    13.708143   -6.720175  -15.005230 H    2261 MOH     0.4215 ****
13874 HC1    10.613546   -8.915326  -37.081811 H    2262 MOH     0.0372 ****
13875 C1     11.127388   -8.606282  -36.171764 C    2262 MOH     0.1166 ****
13876 HC2    12.210497   -8.632410  -36.287730 H    2262 MOH     0.0372 ****
13877 HC3    10.824279   -9.245599  -35.341621 H    2262 MOH     0.0372 ****
13878 O1     10.688024   -7.348878  -35.888922 O    2262 MOH    -0.6497 ****
13879 HO1    10.356048   -6.986761  -36.714115 H    2262 MOH     0.4215 ****
13880 HC1    11.364101    3.822837  -21.830932 H    2263 MOH     0.0372 ****
13881 C1     11.297706    3.562374  -20.774514 C    2263 MOH     0.1166 ****
13882 HC2    11.405670    2.484191  -20.650771 H    2263 MOH     0.0372 ****
13883 HC3    10.313901    3.877134  -20.425911 H    2263 MOH     0.0372 ****
13884 O1     12.281511    4.281300  -20.051144 O    2263 MOH    -0.6497 ****
13885 HO1    13.104235    4.172297  -20.534098 H    2263 MOH     0.4215 ****
13886 HC1    18.910646    6.383778  -16.982301 H    2264 MOH     0.0372 ****
13887 C1     19.348278    5.480325  -17.407272 C    2264 MOH     0.1166 ****
13888 HC2    19.591920    5.675468  -18.450961 H    2264 MOH     0.0372 ****
13889 HC3    18.642756    4.654030  -17.313934 H    2264 MOH     0.0372 ****
13890 O1     20.484503    5.182712  -16.659860 O    2264 MOH    -0.6497 ****
13891 HO1    21.112083    5.908577  -16.707943 H    2264 MOH     0.4215 ****
13892 HC1    15.690764   -0.814047  -17.615161 H    2265 MOH     0.0372 ****
13893 C1     15.280268   -1.770573  -17.292013 C    2265 MOH     0.1166 ****
13894 HC2    16.059113   -2.533181  -17.270800 H    2265 MOH     0.0372 ****
13895 HC3    14.495071   -2.049407  -17.994170 H    2265 MOH     0.0372 ****
13896 O1     14.684442   -1.626053  -16.036192 O    2265 MOH    -0.6497 ****
13897 HO1    15.305094   -1.176980  -15.457778 H    2265 MOH     0.4215 ****
13898 HC1     3.990183    0.506636  -31.247473 H    2266 MOH     0.0372 ****
13899 C1      4.549059    1.139013  -30.558044 C    2266 MOH     0.1166 ****
13900 HC2     4.594092    2.139629  -30.988672 H    2266 MOH     0.0372 ****
13901 HC3     5.562308    0.744645  -30.477434 H    2266 MOH     0.0372 ****
13902 O1      3.883951    1.151260  -29.269695 O    2266 MOH    -0.6497 ****
13903 HO1     4.351027    0.533172  -28.704010 H    2266 MOH     0.4215 ****
13904 HC1    12.465108   -5.706495  -33.348287 H    2267 MOH     0.0372 ****
13905 C1     11.582917   -5.123108  -33.087365 C    2267 MOH     0.1166 ****
13906 HC2    11.887180   -4.124533  -32.776238 H    2267 MOH     0.0372 ****
13907 HC3    11.047713   -5.613006  -32.274192 H    2267 MOH     0.0372 ****
13908 O1     10.761925   -5.067995  -34.254798 O    2267 MOH    -0.6497 ****
13909 HO1    10.671281   -5.956751  -34.607644 H    2267 MOH     0.4215 ****
13910 HC1    14.195427   -3.843658  -28.281867 H    2268 MOH     0.0372 ****
13911 C1     13.883658   -2.800175  -28.317222 C    2268 MOH     0.1166 ****
13912 HC2    14.689639   -2.142895  -27.989125 H    2268 MOH     0.0372 ****
13913 HC3    13.040726   -2.676884  -27.638400 H    2268 MOH     0.0372 ****
13914 O1     13.430438   -2.453981  -29.611228 O    2268 MOH    -0.6497 ****
13915 HO1    13.219128   -1.518276  -29.581529 H    2268 MOH     0.4215 ****
13916 HC1    20.891535    4.169848  -20.784414 H    2269 MOH     0.0372 ****
13917 C1     21.817028    4.469502  -20.290853 C    2269 MOH     0.1166 ****
13918 HC2    22.261010    3.615447  -19.778908 H    2269 MOH     0.0372 ****
13919 HC3    21.571076    5.221496  -19.541320 H    2269 MOH     0.0372 ****
13920 O1     22.699219    4.968790  -21.316865 O    2269 MOH    -0.6497 ****
13921 HO1    22.508693    5.906944  -21.391818 H    2269 MOH     0.4215 ****
13922 HC1     9.920725   -4.672810  -27.465159 H    2270 MOH     0.0372 ****
13923 C1     10.692065   -4.965932  -26.752395 C    2270 MOH     0.1166 ****
13924 HC2    11.589845   -5.222312  -27.315252 H    2270 MOH     0.0372 ****
13925 HC3    10.361821   -5.854281  -26.213580 H    2270 MOH     0.0372 ****
13926 O1     10.952450   -3.888565  -25.843763 O    2270 MOH    -0.6497 ****
13927 HO1    10.286188   -3.913468  -25.152919 H    2270 MOH     0.4215 ****
13928 HC1     9.791399   -4.062071  -21.582030 H    2271 MOH     0.0372 ****
13929 C1     10.274641   -4.212714  -22.547231 C    2271 MOH     0.1166 ****
13930 HC2    10.730170   -5.202308  -22.567030 H    2271 MOH     0.0372 ****
13931 HC3    11.035011   -3.443574  -22.685824 H    2271 MOH     0.0372 ****
13932 O1      9.243494   -4.163316  -23.533645 O    2271 MOH    -0.6497 ****
13933 HO1     8.730806   -3.362333  -23.403537 H    2271 MOH     0.4215 ****
13934 HC1     5.491294   -2.634426  -27.915586 H    2272 MOH     0.0372 ****
13935 C1      6.079037   -1.718725  -27.854067 C    2272 MOH     0.1166 ****
13936 HC2     6.544958   -1.508069  -28.817147 H    2272 MOH     0.0372 ****
13937 HC3     6.867697   -1.867328  -27.117262 H    2272 MOH     0.0372 ****
13938 O1      5.297304   -0.594001  -27.478594 O    2272 MOH    -0.6497 ****
13939 HO1     4.897201   -0.758117  -26.621580 H    2272 MOH     0.4215 ****
13940 HC1    24.723871    8.869439  -19.456467 H    2273 MOH     0.0372 ****
13941 C1     25.716336    8.890260  -19.906894 C    2273 MOH     0.1166 ****
13942 HC2    26.239415    9.801470  -19.616980 H    2273 MOH     0.0372 ****
13943 HC3    25.656291    8.834738  -20.993010 H    2273 MOH     0.0372 ****
13944 O1     26.451303    7.825548  -19.458588 O    2273 MOH    -0.6497 ****
13945 HO1    26.004434    7.029464  -19.754159 H    2273 MOH     0.4215 ****
13946 HC1    24.025854   11.339749  -20.635214 H    2274 MOH     0.0372 ****
13947 C1     23.632679   11.774534  -19.716682 C    2274 MOH     0.1166 ****
13948 HC2    23.448504   12.839245  -19.858104 H    2274 MOH     0.0372 ****
13949 HC3    24.331850   11.630422  -18.892903 H    2274 MOH     0.0372 ****
13950 O1     22.468163   11.113580  -19.387878 O    2274 MOH    -0.6497 ****
13951 HO1    22.043811   11.563061  -18.653194 H    2274 MOH     0.4215 ****
13952 HC1    23.558201   11.845569  -15.417473 H    2275 MOH     0.0372 ****
13953 C1     24.452516   11.403028  -14.977653 C    2275 MOH     0.1166 ****
13954 HC2    24.518334   11.676146  -13.924771 H    2275 MOH     0.0372 ****
13955 HC3    25.342790   11.772901  -15.486770 H    2275 MOH     0.0372 ****
13956 O1     24.401132    9.990489  -15.093618 O    2275 MOH    -0.6497 ****
13957 HO1    25.306417    9.682261  -15.005230 H    2275 MOH     0.4215 ****
13958 HC1    27.289038   15.588389  -17.615161 H    2276 MOH     0.0372 ****
13959 C1     26.878542   14.631864  -17.292013 C    2276 MOH     0.1166 ****
13960 HC2    27.657387   13.869256  -17.270800 H    2276 MOH     0.0372 ****
13961 HC3    26.093346   14.353030  -17.994170 H    2276 MOH     0.0372 ****
13962 O1     26.282716   14.776383  -16.036192 O    2276 MOH    -0.6497 ****
13963 HO1    26.903368   15.225457  -15.457778 H    2276 MOH     0.4215 ****
13964 HC1   -28.527339   16.549814   -3.482501 H    2277 MOH     0.0372 ****
13965 C1    -28.721906   17.291193   -2.707512 C    2277 MOH     0.1166 ****
13966 HC2   -29.785962   17.333243   -2.474874 H    2277 MOH     0.0372 ****
13967 HC3   -28.420529   18.279562   -3.054702 H    2277 MOH     0.0372 ****
13968 O1    -28.052179   16.960920   -1.496238 O    2277 MOH    -0.6497 ****
13969 HO1   -28.269840   16.066448   -1.224002 H    2277 MOH     0.4215 ****
13970 HC1   -28.848345   18.579625    0.299106 H    2278 MOH     0.0372 ****
13971 C1    -28.765784   19.519412    0.844992 C    2278 MOH     0.1166 ****
13972 HC2   -29.592550   20.175059    0.572049 H    2278 MOH     0.0372 ****
13973 HC3   -27.808538   19.981549    0.600333 H    2278 MOH     0.0372 ****
13974 O1    -28.806776   19.161378    2.186374 O    2278 MOH    -0.6497 ****
13975 HO1   -28.582764   19.904390    2.750645 H    2278 MOH     0.4215 ****
13976 HC1   -29.290018   12.073780   -1.467247 H    2279 MOH     0.0372 ****
13977 C1    -30.195881   12.398337   -1.978485 C    2279 MOH     0.1166 ****
13978 HC2   -31.081536   12.005602   -1.479268 H    2279 MOH     0.0372 ****
13979 HC3   -30.188375   12.050101   -3.011568 H    2279 MOH     0.0372 ****
13980 O1    -30.288834   13.790464   -1.964343 O    2279 MOH    -0.6497 ****
13981 HO1   -30.018634   14.075830   -1.088238 H    2279 MOH     0.4215 ****
13982 HC1   -29.690122   10.967835    2.969848 H    2280 MOH     0.0372 ****
13983 C1    -29.306184   11.564694    2.142533 C    2280 MOH     0.1166 ****
13984 HC2   -28.618560   10.947423    1.564120 H    2280 MOH     0.0372 ****
13985 HC3   -28.805044   12.426506    2.584475 H    2280 MOH     0.0372 ****
13986 O1    -30.371395   12.004378    1.355523 O    2280 MOH    -0.6497 ****
13987 HO1   -30.900826   11.248302    1.093894 H    2280 MOH     0.4215 ****
13988 HC1   -29.798087   16.424482    1.705541 H    2281 MOH     0.0372 ****
13989 C1    -29.157805   15.549198    1.814436 C    2281 MOH     0.1166 ****
13990 HC2   -29.307916   15.148298    2.817113 H    2281 MOH     0.0372 ****
13991 HC3   -28.119152   15.861916    1.708370 H    2281 MOH     0.0372 ****
13992 O1    -29.537124   14.607369    0.811051 O    2281 MOH    -0.6497 ****
13993 HO1   -29.608138   13.734126    1.203495 H    2281 MOH     0.4215 ****
13994 HC1   -31.662351   18.638004    6.126373 H    2282 MOH     0.0372 ****
13995 C1    -30.803831   18.999712    5.560687 C    2282 MOH     0.1166 ****
13996 HC2   -31.151973   19.519004    4.668319 H    2282 MOH     0.0372 ****
13997 HC3   -30.174519   18.159129    5.267238 H    2282 MOH     0.0372 ****
13998 O1    -30.054430   19.889285    6.356182 O    2282 MOH    -0.6497 ****
13999 HO1   -29.886999   19.470831    7.204003 H    2282 MOH     0.4215 ****
14000 HC1   -27.636025   23.709918   -6.499726 H    2283 MOH     0.0372 ****
14001 C1    -27.823087   22.723998   -6.074755 C    2283 MOH     0.1166 ****
14002 HC2   -28.215108   22.818712   -5.062178 H    2283 MOH     0.0372 ****
14003 HC3   -26.865840   22.207564   -6.006165 H    2283 MOH     0.0372 ****
14004 O1    -28.664286   21.920157   -6.923990 O    2283 MOH    -0.6497 ****
14005 HO1   -29.380200   21.573963   -6.386589 H    2283 MOH     0.4215 ****
14006 HC1   -22.462390   23.604590   -3.415326 H    2284 MOH     0.0372 ****
14007 C1    -23.142508   23.035900   -2.781051 C    2284 MOH     0.1166 ****
14008 HC2   -22.788015   23.073050   -1.750797 H    2284 MOH     0.0372 ****
14009 HC3   -23.197356   21.999357   -3.112684 H    2284 MOH     0.0372 ****
14010 O1    -24.375151   23.658887   -2.863076 O    2284 MOH    -0.6497 ****
14011 HO1   -24.272960   24.551726   -2.527200 H    2284 MOH     0.4215 ****
14012 HC1   -22.132723   23.978953    1.813729 H    2285 MOH     0.0372 ****
14013 C1    -22.298999   24.065910    2.887824 C    2285 MOH     0.1166 ****
14014 HC2   -22.226831   25.122048    3.147332 H    2285 MOH     0.0372 ****
14015 HC3   -21.512071   23.511917    3.400476 H    2285 MOH     0.0372 ****
14016 O1    -23.624596   23.547027    3.121876 O    2285 MOH    -0.6497 ****
14017 HO1   -23.935787   23.895671    3.960505 H    2285 MOH     0.4215 ****
14018 HC1   -30.433287   22.093254    3.891915 H    2286 MOH     0.0372 ****
14019 C1    -29.357107   22.101419    3.722210 C    2286 MOH     0.1166 ****
14020 HC2   -28.936796   22.961599    4.241933 H    2286 MOH     0.0372 ****
14021 HC3   -29.153302   22.161840    2.653064 H    2286 MOH     0.0372 ****
14022 O1    -28.763590   20.956691    4.222841 O    2286 MOH    -0.6497 ****
14023 HO1   -29.225471   20.695412    5.021872 H    2286 MOH     0.4215 ****
14024 HC1   -26.345648   19.981794    2.012426 H    2287 MOH     0.0372 ****
14025 C1    -25.764256   20.739095    2.539220 C    2287 MOH     0.1166 ****
14026 HC2   -24.710592   20.494962    2.402041 H    2287 MOH     0.0372 ****
14027 HC3   -25.994041   20.749709    3.604123 H    2287 MOH     0.0372 ****
14028 O1    -25.892428   21.999357    1.986970 O    2287 MOH    -0.6497 ****
14029 HO1   -25.093952   22.475783    2.228093 H    2287 MOH     0.4215 ****
14030 HC1   -26.125100   19.659278   -2.650237 H    2288 MOH     0.0372 ****
14031 C1    -26.158009   20.744402   -2.749232 C    2288 MOH     0.1166 ****
14032 HC2   -25.712872   21.213479   -1.871712 H    2288 MOH     0.0372 ****
14033 HC3   -27.195507   21.070184   -2.824185 H    2288 MOH     0.0372 ****
14034 O1    -25.472116   21.121623   -3.914544 O    2288 MOH    -0.6497 ****
14035 HO1   -25.370503   22.074883   -3.874238 H    2288 MOH     0.4215 ****
14036 HC1   -26.391258   18.105893    0.512652 H    2289 MOH     0.0372 ****
14037 C1    -25.553523   18.334104   -0.147079 C    2289 MOH     0.1166 ****
14038 HC2   -25.196143   19.335537    0.088388 H    2289 MOH     0.0372 ****
14039 HC3   -25.903975   18.289197   -1.178040 H    2289 MOH     0.0372 ****
14040 O1    -24.472723   17.392275    0.057275 O    2289 MOH    -0.6497 ****
14041 HO1   -23.639607   17.780519   -0.220618 H    2289 MOH     0.4215 ****
14042 HC1   -28.527339   -8.053841  -17.687428 H    2290 MOH     0.0372 ****
14043 C1    -28.721906   -7.312462  -16.912439 C    2290 MOH     0.1166 ****
14044 HC2   -29.785962   -7.270412  -16.679801 H    2290 MOH     0.0372 ****
14045 HC3   -28.420529   -6.324093  -17.259628 H    2290 MOH     0.0372 ****
14046 O1    -28.052179   -7.642735  -15.701165 O    2290 MOH    -0.6497 ****
14047 HO1   -28.269840   -8.537207  -15.428929 H    2290 MOH     0.4215 ****
14048 HC1   -28.848345   -6.024030  -13.905821 H    2291 MOH     0.0372 ****
14049 C1    -28.765784   -5.084243  -13.359934 C    2291 MOH     0.1166 ****
14050 HC2   -29.592550   -4.428596  -13.632878 H    2291 MOH     0.0372 ****
14051 HC3   -27.808537   -4.622106  -13.604593 H    2291 MOH     0.0372 ****
14052 O1    -28.806776   -5.442276  -12.018553 O    2291 MOH    -0.6497 ****
14053 HO1   -28.582764   -4.699264  -11.454282 H    2291 MOH     0.4215 ****
14054 HC1   -29.290018  -12.529875  -15.672173 H    2292 MOH     0.0372 ****
14055 C1    -30.195881  -12.205318  -16.183412 C    2292 MOH     0.1166 ****
14056 HC2   -31.081536  -12.598052  -15.684194 H    2292 MOH     0.0372 ****
14057 HC3   -30.188375  -12.553553  -17.216495 H    2292 MOH     0.0372 ****
14058 O1    -30.288834  -10.813191  -16.169270 O    2292 MOH    -0.6497 ****
14059 HO1   -30.018634  -10.527825  -15.293164 H    2292 MOH     0.4215 ****
14060 HC1   -29.690122  -13.635820  -11.235078 H    2293 MOH     0.0372 ****
14061 C1    -29.306184  -13.038961  -12.062393 C    2293 MOH     0.1166 ****
14062 HC2   -28.618560  -13.656232  -12.640807 H    2293 MOH     0.0372 ****
14063 HC3   -28.805044  -12.177148  -11.620452 H    2293 MOH     0.0372 ****
14064 O1    -30.371395  -12.599277  -12.849403 O    2293 MOH    -0.6497 ****
14065 HO1   -30.900826  -13.355353  -13.111033 H    2293 MOH     0.4215 ****
14066 HC1   -29.798087   -8.179173  -12.499385 H    2294 MOH     0.0372 ****
14067 C1    -29.157805   -9.054457  -12.390491 C    2294 MOH     0.1166 ****
14068 HC2   -29.307916   -9.455357  -11.387814 H    2294 MOH     0.0372 ****
14069 HC3   -28.119152   -8.741739  -12.496557 H    2294 MOH     0.0372 ****
14070 O1    -29.537124   -9.996286  -13.393875 O    2294 MOH    -0.6497 ****
14071 HO1   -29.608138  -10.869529  -13.001431 H    2294 MOH     0.4215 ****
14072 HC1   -31.662351   -5.965651   -8.078554 H    2295 MOH     0.0372 ****
14073 C1    -30.803831   -5.603943   -8.644239 C    2295 MOH     0.1166 ****
14074 HC2   -31.151973   -5.084651   -9.536608 H    2295 MOH     0.0372 ****
14075 HC3   -30.174519   -6.444526   -8.937689 H    2295 MOH     0.0372 ****
14076 O1    -30.054430   -4.714370   -7.848744 O    2295 MOH    -0.6497 ****
14077 HO1   -29.886998   -5.132824   -7.000923 H    2295 MOH     0.4215 ****
14078 HC1   -27.257283    5.210799   -7.291544 H    2296 MOH     0.0372 ****
14079 C1    -27.196084    5.990554   -6.533526 C    2296 MOH     0.1166 ****
14080 HC2   -26.835818    5.544747   -5.605801 H    2296 MOH     0.0372 ****
14081 HC3   -28.189127    6.415948   -6.387862 H    2296 MOH     0.0372 ****
14082 O1    -26.324863    7.013216   -6.961325 O    2296 MOH    -0.6497 ****
14083 HO1   -25.438053    6.653141   -7.027793 H    2296 MOH     0.4215 ****
14084 HC1   -20.998807    9.959952  -13.072142 H    2297 MOH     0.0372 ****
14085 C1    -20.565216   10.153053  -12.091385 C    2297 MOH     0.1166 ****
14086 HC2   -20.279428   11.203884  -12.040473 H    2297 MOH     0.0372 ****
14087 HC3   -19.677252    9.533741  -11.964813 H    2297 MOH     0.0372 ****
14088 O1    -21.519576    9.838294  -11.083758 O    2297 MOH    -0.6497 ****
14089 HO1   -21.318659    8.946680  -10.791015 H    2297 MOH     0.4215 ****
14090 HC1   -27.636025   -0.893737  -20.704652 H    2298 MOH     0.0372 ****
14091 C1    -27.823087   -1.879657  -20.279681 C    2298 MOH     0.1166 ****
14092 HC2   -28.215107   -1.784943  -19.267104 H    2298 MOH     0.0372 ****
14093 HC3   -26.865840   -2.396091  -20.211092 H    2298 MOH     0.0372 ****
14094 O1    -28.664286   -2.683498  -21.128917 O    2298 MOH    -0.6497 ****
14095 HO1   -29.380200   -3.029692  -20.591515 H    2298 MOH     0.4215 ****
14096 HC1   -25.005617   -0.421802  -14.067748 H    2299 MOH     0.0372 ****
14097 C1    -25.854322    0.012982  -13.539539 C    2299 MOH     0.1166 ****
14098 HC2   -25.990577    1.040135  -13.877537 H    2299 MOH     0.0372 ****
14099 HC3   -25.689777    0.000735  -12.461909 H    2299 MOH     0.0372 ****
14100 O1    -27.019992   -0.685122  -13.873294 O    2299 MOH    -0.6497 ****
14101 HO1   -26.992857   -1.485697  -13.343671 H    2299 MOH     0.4215 ****
14102 HC1   -16.929064    8.348596  -17.687428 H    2300 MOH     0.0372 ****
14103 C1    -17.123631    9.089975  -16.912439 C    2300 MOH     0.1166 ****
14104 HC2   -18.187688    9.132024  -16.679801 H    2300 MOH     0.0372 ****
14105 HC3   -16.822255   10.078344  -17.259628 H    2300 MOH     0.0372 ****
14106 O1    -16.453905    8.759702  -15.701165 O    2300 MOH    -0.6497 ****
14107 HO1   -16.671566    7.865230  -15.428929 H    2300 MOH     0.4215 ****
14108 HC1   -26.111243    6.653957  -23.681572 H    2301 MOH     0.0372 ****
14109 C1    -26.903368    6.121601  -23.155485 C    2301 MOH     0.1166 ****
14110 HC2   -26.876232    6.379206  -22.096946 H    2301 MOH     0.0372 ****
14111 HC3   -26.737668    5.054032  -23.297613 H    2301 MOH     0.0372 ****
14112 O1    -28.131969    6.537198  -23.711271 O    2301 MOH    -0.6497 ****
14113 HO1   -28.826521    6.178348  -23.153363 H    2301 MOH     0.4215 ****
14114 HC1   -22.046120   12.712770  -16.158663 H    2302 MOH     0.0372 ****
14115 C1    -21.997622   11.625197  -16.209575 C    2302 MOH     0.1166 ****
14116 HC2   -22.375787   11.270429  -17.167704 H    2302 MOH     0.0372 ****
14117 HC3   -22.604418   11.178573  -15.421858 H    2302 MOH     0.0372 ****
14118 O1    -20.661057   11.190820  -16.136036 O    2302 MOH    -0.6497 ****
14119 HO1   -20.693388   10.231437  -16.114822 H    2302 MOH     0.4215 ****
14120 HC1   -22.849214    7.131199  -23.236802 H    2303 MOH     0.0372 ****
14121 C1    -22.650606    8.091808  -22.762333 C    2303 MOH     0.1166 ****
14122 HC2   -21.585972    8.308996  -22.845772 H    2303 MOH     0.0372 ****
14123 HC3   -22.879814    8.056698  -21.697430 H    2303 MOH     0.0372 ****
14124 O1    -23.443885    9.087525  -23.413579 O    2303 MOH    -0.6497 ****
14125 HO1   -23.396542    9.863605  -22.850015 H    2303 MOH     0.4215 ****
14126 HC1   -24.007956    1.663938  -18.224829 H    2304 MOH     0.0372 ****
14127 C1    -23.960613    2.387354  -17.410242 C    2304 MOH     0.1166 ****
14128 HC2   -24.753893    3.114853  -17.581362 H    2304 MOH     0.0372 ****
14129 HC3   -22.999903    2.900931  -17.456911 H    2304 MOH     0.0372 ****
14130 O1    -24.145943    1.745588  -16.116237 O    2304 MOH    -0.6497 ****
14131 HO1   -24.337623    2.421239  -15.460749 H    2304 MOH     0.4215 ****
14132 HC1   -17.250071   10.378406  -13.905821 H    2305 MOH     0.0372 ****
14133 C1    -17.167510   11.318194  -13.359934 C    2305 MOH     0.1166 ****
14134 HC2   -17.994276   11.973841  -13.632878 H    2305 MOH     0.0372 ****
14135 HC3   -16.210263   11.780331  -13.604593 H    2305 MOH     0.0372 ****
14136 O1    -17.208502   10.960160  -12.018553 O    2305 MOH    -0.6497 ****
14137 HO1   -16.984490   11.703172  -11.454282 H    2305 MOH     0.4215 ****
14138 HC1   -29.342673   15.002635  -14.162501 H    2306 MOH     0.0372 ****
14139 C1    -30.008357   15.861589  -14.077648 C    2306 MOH     0.1166 ****
14140 HC2   -31.050475   15.541522  -14.084719 H    2306 MOH     0.0372 ****
14141 HC3   -29.873257   16.486209  -14.960117 H    2306 MOH     0.0372 ****
14142 O1    -29.782614   16.658490  -12.874152 O    2306 MOH    -0.6497 ****
14143 HO1   -29.855360   16.091433  -12.104113 H    2306 MOH     0.4215 ****
14144 HC1   -29.268194    4.348579   -5.212650 H    2307 MOH     0.0372 ****
14145 C1    -28.968550    3.301422   -5.227499 C    2307 MOH     0.1166 ****
14146 HC2   -28.334619    3.112812   -6.094412 H    2307 MOH     0.0372 ****
14147 HC3   -29.836307    2.647408   -5.306695 H    2307 MOH     0.0372 ****
14148 O1    -28.263605    2.990337   -4.033903 O    2307 MOH    -0.6497 ****
14149 HO1   -27.829438    2.141997   -4.152697 H    2307 MOH     0.4215 ****
14150 HC1   -22.462389   -0.999065  -17.620253 H    2308 MOH     0.0372 ****
14151 C1    -23.142508   -1.567755  -16.985978 C    2308 MOH     0.1166 ****
14152 HC2   -22.788015   -1.530605  -15.955723 H    2308 MOH     0.0372 ****
14153 HC3   -23.197356   -2.604298  -17.317611 H    2308 MOH     0.0372 ****
14154 O1    -24.375151   -0.944768  -17.068002 O    2308 MOH    -0.6497 ****
14155 HO1   -24.272960   -0.051929  -16.732127 H    2308 MOH     0.4215 ****
14156 HC1   -28.594427    5.464322  -12.636564 H    2309 MOH     0.0372 ****
14157 C1    -28.734723    5.310004  -13.705710 C    2309 MOH     0.1166 ****
14158 HC2   -28.931022    6.264488  -14.195028 H    2309 MOH     0.0372 ****
14159 HC3   -29.568994    4.631087  -13.881779 H    2309 MOH     0.0372 ****
14160 O1    -27.559238    4.755603  -14.257253 O    2309 MOH    -0.6497 ****
14161 HO1   -26.912605    4.654765  -13.555096 H    2309 MOH     0.4215 ****
14162 HC1   -25.831228   13.500689  -11.346094 H    2310 MOH     0.0372 ****
14163 C1    -25.348563   12.534774  -11.493173 C    2310 MOH     0.1166 ****
14164 HC2   -26.121635   11.780739  -11.640958 H    2310 MOH     0.0372 ****
14165 HC3   -24.783915   12.292274  -10.593733 H    2310 MOH     0.0372 ****
14166 O1    -24.440391   12.562535  -12.616058 O    2310 MOH    -0.6497 ****
14167 HO1   -23.729096   13.166742  -12.386955 H    2310 MOH     0.4215 ****
14168 HC1   -31.138232    5.258156  -20.005324 H    2311 MOH     0.0372 ****
14169 C1    -31.299313    4.245292  -19.636921 C    2311 MOH     0.1166 ****
14170 HC2   -32.050445    4.290200  -18.849204 H    2311 MOH     0.0372 ****
14171 HC3   -30.374397    3.844801  -19.221850 H    2311 MOH     0.0372 ****
14172 O1    -31.750801    3.398585  -20.693339 O    2311 MOH    -0.6497 ****
14173 HO1   -31.346078    2.540447  -20.543432 H    2311 MOH     0.4215 ****
14174 HC1   -22.132722   -0.624702  -12.391198 H    2312 MOH     0.0372 ****
14175 C1    -22.298999   -0.537745  -11.317103 C    2312 MOH     0.1166 ****
14176 HC2   -22.226831    0.518394  -11.057595 H    2312 MOH     0.0372 ****
14177 HC3   -21.512071   -1.091738  -10.804450 H    2312 MOH     0.0372 ****
14178 O1    -23.624596   -1.056628  -11.083050 O    2312 MOH    -0.6497 ****
14179 HO1   -23.935787   -0.707984  -10.244422 H    2312 MOH     0.4215 ****
14180 HC1   -23.266638   16.772391   -3.210124 H    2313 MOH     0.0372 ****
14181 C1    -23.977934   15.946505   -3.220730 C    2313 MOH     0.1166 ****
14182 HC2   -23.615935   15.215332   -3.944101 H    2313 MOH     0.0372 ****
14183 HC3   -24.966935   16.318827   -3.490845 H    2313 MOH     0.0372 ****
14184 O1    -24.041443   15.372916   -1.935917 O    2313 MOH    -0.6497 ****
14185 HO1   -24.317416   16.056732   -1.321441 H    2313 MOH     0.4215 ****
14186 HC1   -22.539177    5.513311  -13.572773 H    2314 MOH     0.0372 ****
14187 C1    -22.555920    4.506163  -13.990674 C    2314 MOH     0.1166 ****
14188 HC2   -22.054203    3.847658  -13.282860 H    2314 MOH     0.0372 ****
14189 HC3   -22.004551    4.477586  -14.931126 H    2314 MOH     0.0372 ****
14190 O1    -23.898837    4.070562  -14.139873 O    2314 MOH    -0.6497 ****
14191 HO1   -24.390739    4.331433  -13.357106 H    2314 MOH     0.4215 ****
14192 HC1   -28.404478    9.304305  -14.441101 H    2315 MOH     0.0372 ****
14193 C1    -29.467958    9.505163  -14.572623 C    2315 MOH     0.1166 ****
14194 HC2   -30.049927    8.584155  -14.545753 H    2315 MOH     0.0372 ****
14195 HC3   -29.633080    9.975873  -15.542066 H    2315 MOH     0.0372 ****
14196 O1    -29.918291   10.395553  -13.593280 O    2315 MOH    -0.6497 ****
14197 HO1   -29.808017   11.290025  -13.923499 H    2315 MOH     0.4215 ****
14198 HC1   -24.691539   12.231854  -17.237708 H    2316 MOH     0.0372 ****
14199 C1    -25.095684   12.577640  -18.188767 C    2316 MOH     0.1166 ****
14200 HC2   -26.028682   12.054265  -18.400899 H    2316 MOH     0.0372 ****
14201 HC3   -24.374573   12.432712  -18.992747 H    2316 MOH     0.0372 ****
14202 O1    -25.342213   13.943639  -18.034617 O    2316 MOH    -0.6497 ****
14203 HO1   -24.517756   14.399244  -17.846527 H    2316 MOH     0.4215 ****
14204 HC1   -28.924094    0.976040  -12.034109 H    2317 MOH     0.0372 ****
14205 C1    -29.110000    1.561876  -12.934256 C    2317 MOH     0.1166 ****
14206 HC2   -29.092103    0.938073  -13.828039 H    2317 MOH     0.0372 ****
14207 HC3   -28.362332    2.347346  -13.043151 H    2317 MOH     0.0372 ****
14208 O1    -30.352458    2.150162  -12.804856 O    2317 MOH    -0.6497 ****
14209 HO1   -30.650948    2.260797  -13.710659 H    2317 MOH     0.4215 ****
14210 HC1   -27.739371    4.551070  -10.614946 H    2318 MOH     0.0372 ****
14211 C1    -26.985351    3.797444  -10.842634 C    2318 MOH     0.1166 ****
14212 HC2   -27.471480    2.907871  -11.242150 H    2318 MOH     0.0372 ****
14213 HC3   -26.496336    3.507996   -9.912789 H    2318 MOH     0.0372 ****
14214 O1    -26.051199    4.339598  -11.787329 O    2318 MOH    -0.6497 ****
14215 HO1   -25.834692    5.237336  -11.527821 H    2318 MOH     0.4215 ****
14216 HC1   -29.493938   12.903830  -19.701268 H    2319 MOH     0.0372 ****
14217 C1    -29.731229   12.617240  -18.675963 C    2319 MOH     0.1166 ****
14218 HC2   -28.969127   11.954653  -18.266548 H    2319 MOH     0.0372 ****
14219 HC3   -30.684435   12.088558  -18.695055 H    2319 MOH     0.0372 ****
14220 O1    -29.832843   13.743597  -17.838042 O    2319 MOH    -0.6497 ****
14221 HO1   -29.059194   14.300039  -17.957543 H    2319 MOH     0.4215 ****
14222 HC1   -22.451997   14.119185  -18.904359 H    2320 MOH     0.0372 ****
14223 C1    -22.031686   15.002635  -18.423526 C    2320 MOH     0.1166 ****
14224 HC2   -21.778229   15.744422  -19.180837 H    2320 MOH     0.0372 ****
14225 HC3   -21.144876   14.719719  -17.857134 H    2320 MOH     0.0372 ****
14226 O1    -23.036853   15.499065  -17.600454 O    2320 MOH    -0.6497 ****
14227 HO1   -22.680628   15.695432  -16.731420 H    2320 MOH     0.4215 ****
14228 HC1   -28.100792   16.427013   -6.328465 H    2321 MOH     0.0372 ****
14229 C1    -28.143516   17.301073   -6.978296 C    2321 MOH     0.1166 ****
14230 HC2   -27.342731   18.001218   -6.740001 H    2321 MOH     0.0372 ****
14231 HC3   -29.082865   17.817098   -6.783134 H    2321 MOH     0.0372 ****
14232 O1    -28.142939   16.946713   -8.369882 O    2321 MOH    -0.6497 ****
14233 HO1   -28.033820   17.739123   -8.900919 H    2321 MOH     0.4215 ****
14234 HC1   -30.433287   -2.510400  -10.313011 H    2322 MOH     0.0372 ****
14235 C1    -29.357106   -2.502235  -10.482717 C    2322 MOH     0.1166 ****
14236 HC2   -28.936795   -1.642056   -9.962993 H    2322 MOH     0.0372 ****
14237 HC3   -29.153302   -2.441815  -11.551862 H    2322 MOH     0.0372 ****
14238 O1    -28.763590   -3.646964   -9.982085 O    2322 MOH    -0.6497 ****
14239 HO1   -29.225471   -3.908243   -9.183055 H    2322 MOH     0.4215 ****
14240 HC1   -29.123857    8.415548  -19.129926 H    2323 MOH     0.0372 ****
14241 C1    -29.109423    9.123043  -19.959362 C    2323 MOH     0.1166 ****
14242 HC2   -30.100156    9.554153  -20.100783 H    2323 MOH     0.0372 ****
14243 HC3   -28.770518    8.629879  -20.870116 H    2323 MOH     0.0372 ****
14244 O1    -28.232428   10.174690  -19.652478 O    2323 MOH    -0.6497 ****
14245 HO1   -28.036129   10.181631  -18.712733 H    2323 MOH     0.4215 ****
14246 HC1   -22.992397    4.580872   -5.800256 H    2324 MOH     0.0372 ****
14247 C1    -22.917342    5.622722   -6.109969 C    2324 MOH     0.1166 ****
14248 HC2   -21.878688    5.847259   -6.353213 H    2324 MOH     0.0372 ****
14249 HC3   -23.279340    6.224072   -5.274875 H    2324 MOH     0.0372 ****
14250 O1    -23.805306    5.780306   -7.186185 O    2324 MOH    -0.6497 ****
14251 HO1   -23.438111    5.259789   -7.903898 H    2324 MOH     0.4215 ****
14252 HC1   -24.369955   13.054066  -21.778748 H    2325 MOH     0.0372 ****
14253 C1    -23.626328   12.533141  -22.381203 C    2325 MOH     0.1166 ****
14254 HC2   -22.710650   13.122651  -22.429286 H    2325 MOH     0.0372 ****
14255 HC3   -23.962345   12.411891  -23.411457 H    2325 MOH     0.0372 ****
14256 O1    -23.288000   11.304313  -21.797133 O    2325 MOH    -0.6497 ****
14257 HO1   -23.991790   11.032828  -21.203870 H    2325 MOH     0.4215 ****
14258 HC1   -23.654040    7.376965  -17.118914 H    2326 MOH     0.0372 ****
14259 C1    -23.693300    6.307354  -17.323975 C    2326 MOH     0.1166 ****
14260 HC2   -24.471568    5.879102  -16.692529 H    2326 MOH     0.0372 ****
14261 HC3   -22.724506    5.870937  -17.080023 H    2326 MOH     0.0372 ****
14262 O1    -23.981975    6.015457  -18.692227 O    2326 MOH    -0.6497 ****
14263 HO1   -23.552427    5.201001  -18.964463 H    2326 MOH     0.4215 ****
14264 HC1   -19.492500    6.057098  -19.365392 H    2327 MOH     0.0372 ****
14265 C1    -20.015002    6.986271  -19.137704 C    2327 MOH     0.1166 ****
14266 HC2   -21.047304    6.773166  -18.859104 H    2327 MOH     0.0372 ****
14267 HC3   -19.974587    7.632528  -20.013809 H    2327 MOH     0.0372 ****
14268 O1    -19.327377    7.549654  -18.071387 O    2327 MOH    -0.6497 ****
14269 HO1   -18.864920    6.834403  -17.628738 H    2327 MOH     0.4215 ****
14270 HC1   -26.092191    1.271203   -9.725406 H    2328 MOH     0.0372 ****
14271 C1    -25.841043    0.750687   -8.801217 C    2328 MOH     0.1166 ****
14272 HC2   -26.507883   -0.102960   -8.680302 H    2328 MOH     0.0372 ****
14273 HC3   -25.964019    1.420622   -7.950567 H    2328 MOH     0.0372 ****
14274 O1    -24.501013    0.319985   -8.898091 O    2328 MOH    -0.6497 ****
14275 HO1   -24.311065   -0.235641   -8.139365 H    2328 MOH     0.4215 ****
14276 HC1   -24.619370    8.201626  -19.746523 H    2329 MOH     0.0372 ****
14277 C1    -25.556409    8.457598  -20.239376 C    2329 MOH     0.1166 ****
14278 HC2   -26.394722    8.125692  -19.626315 H    2329 MOH     0.0372 ****
14279 HC3   -25.574885    7.958719  -21.208113 H    2329 MOH     0.0372 ****
14280 O1    -25.587009    9.841152  -20.456458 O    2329 MOH    -0.6497 ****
14281 HO1   -26.503264   10.082426  -20.608486 H    2329 MOH     0.4215 ****
14282 HC1   -27.948949    3.491666  -21.454186 H    2330 MOH     0.0372 ****
14283 C1    -27.643531    2.511462  -21.821174 C    2330 MOH     0.1166 ****
14284 HC2   -26.694367    2.591070  -22.350797 H    2330 MOH     0.0372 ****
14285 HC3   -28.410252    2.119135  -22.487976 H    2330 MOH     0.0372 ****
14286 O1    -27.489956    1.590862  -20.747079 O    2330 MOH    -0.6497 ****
14287 HO1   -26.640673    1.156894  -20.855266 H    2330 MOH     0.4215 ****
14288 HC1   -22.107896    0.843359  -14.781219 H    2331 MOH     0.0372 ****
14289 C1    -21.236675    1.346729  -15.200533 C    2331 MOH     0.1166 ****
14290 HC2   -21.534588    2.295907  -15.643889 H    2331 MOH     0.0372 ****
14291 HC3   -20.797889    0.735173  -15.989664 H    2331 MOH     0.0372 ****
14292 O1    -20.267881    1.621889  -14.214826 O    2331 MOH    -0.6497 ****
14293 HO1   -19.837755    0.783755  -14.031686 H    2331 MOH     0.4215 ****
14294 HC1   -26.555225   16.422930  -16.507974 H    2332 MOH     0.0372 ****
14295 C1    -27.570207   16.039585  -16.611919 C    2332 MOH     0.1166 ****
14296 HC2   -28.291318   16.856898  -16.590705 H    2332 MOH     0.0372 ****
14297 HC3   -27.805189   15.344747  -15.805817 H    2332 MOH     0.0372 ****
14298 O1    -27.697802   15.327600  -17.794201 O    2332 MOH    -0.6497 ****
14299 HO1   -26.977269   14.694407  -17.826021 H    2332 MOH     0.4215 ****
14300 HC1   -27.021724    2.088925  -16.435142 H    2333 MOH     0.0372 ****
14301 C1    -27.519978    1.313253  -17.014969 C    2333 MOH     0.1166 ****
14302 HC2   -26.793094    0.567792  -17.337410 H    2333 MOH     0.0372 ****
14303 HC3   -27.982435    1.787229  -17.881175 H    2333 MOH     0.0372 ****
14304 O1    -28.495122    0.682509  -16.218060 O    2333 MOH    -0.6497 ****
14305 HO1   -28.023427    0.313453  -15.468527 H    2333 MOH     0.4215 ****
14306 HC1   -23.681176    8.140797   -9.248108 H    2334 MOH     0.0372 ****
14307 C1    -24.303559    9.035269   -9.257301 C    2334 MOH     0.1166 ****
14308 HC2   -23.859577    9.822372   -8.647775 H    2334 MOH     0.0372 ****
14309 HC3   -25.275240    8.757252   -8.847886 H    2334 MOH     0.0372 ****
14310 O1    -24.483115    9.488017  -10.578883 O    2334 MOH    -0.6497 ****
14311 HO1   -23.625750    9.763584  -10.911931 H    2334 MOH     0.4215 ****
14312 HC1   -28.052295    8.320427  -11.407613 H    2335 MOH     0.0372 ****
14313 C1    -27.598497    9.199794  -10.950822 C    2335 MOH     0.1166 ****
14314 HC2   -26.761340    9.516594  -11.573076 H    2335 MOH     0.0372 ****
14315 HC3   -27.294811    8.950762   -9.934002 H    2335 MOH     0.0372 ****
14316 O1    -28.548816   10.197552  -10.986177 O    2335 MOH    -0.6497 ****
14317 HO1   -28.876751   10.253074  -11.887031 H    2335 MOH     0.4215 ****
14318 HC1   -20.689347   11.639485   -6.030773 H    2336 MOH     0.0372 ****
14319 C1    -20.942226   12.504155   -5.417004 C    2336 MOH     0.1166 ****
14320 HC2   -20.134513   12.687459   -4.709190 H    2336 MOH     0.0372 ****
14321 HC3   -21.860213   12.271454   -4.878189 H    2336 MOH     0.0372 ****
14322 O1    -21.134484   13.612549   -6.273310 O    2336 MOH    -0.6497 ****
14323 HO1   -21.819799   13.341472   -6.888493 H    2336 MOH     0.4215 ****
14324 HC1   -24.429999    4.380014   -9.564892 H    2337 MOH     0.0372 ****
14325 C1    -23.607275    3.689258   -9.750154 C    2337 MOH     0.1166 ****
14326 HC2   -23.331879    3.810508  -10.797379 H    2337 MOH     0.0372 ****
14327 HC3   -23.915580    2.649450   -9.643381 H    2337 MOH     0.0372 ****
14328 O1    -22.517238    3.999935   -8.865564 O    2337 MOH    -0.6497 ****
14329 HO1   -21.906401    3.259373   -8.852836 H    2337 MOH     0.4215 ****
14330 HC1   -28.682761    5.721518  -18.760109 H    2338 MOH     0.0372 ****
14331 C1    -27.755537    5.544747  -18.216344 C    2338 MOH     0.1166 ****
14332 HC2   -27.821355    4.620064  -17.642880 H    2338 MOH     0.0372 ****
14333 HC3   -27.532102    6.381247  -17.553785 H    2338 MOH     0.0372 ****
14334 O1    -26.752102    5.442684  -19.146896 O    2338 MOH    -0.6497 ****
14335 HO1   -25.942079    5.783572  -18.760109 H    2338 MOH     0.4215 ****
14336 HC1   -19.595845    5.337765  -10.629795 H    2339 MOH     0.0372 ****
14337 C1    -20.427230    6.021172  -10.799501 C    2339 MOH     0.1166 ****
14338 HC2   -21.349258    5.561076  -10.442412 H    2339 MOH     0.0372 ****
14339 HC3   -20.497666    6.209375  -11.870767 H    2339 MOH     0.0372 ****
14340 O1    -20.099295    7.241835  -10.147548 O    2339 MOH    -0.6497 ****
14341 HO1   -19.486149    7.044651   -9.435492 H    2339 MOH     0.4215 ****
14342 HC1   -27.089275    7.567209   -2.146635 H    2340 MOH     0.0372 ****
14343 C1    -27.980703    8.193870   -2.178455 C    2340 MOH     0.1166 ****
14344 HC2   -28.869245    7.563126   -2.218760 H    2340 MOH     0.0372 ****
14345 HC3   -27.971466    8.811958   -3.076481 H    2340 MOH     0.0372 ****
14346 O1    -27.970311    9.041393   -1.056984 O    2340 MOH    -0.6497 ****
14347 HO1   -27.214560    9.621514   -1.173656 H    2340 MOH     0.4215 ****
14348 HC1   -19.836023    8.164068  -14.607271 H    2341 MOH     0.0372 ****
14349 C1    -20.845809    7.843184  -14.863243 C    2341 MOH     0.1166 ****
14350 HC2   -21.543248    8.273886  -14.144116 H    2341 MOH     0.0372 ****
14351 HC3   -20.927215    6.756836  -14.828595 H    2341 MOH     0.0372 ****
14352 O1    -21.200879    8.302464  -16.135328 O    2341 MOH    -0.6497 ****
14353 HO1   -20.602167    7.895032  -16.764654 H    2341 MOH     0.4215 ****
14354 HC1   -25.432279    8.829104   -3.560142 H    2342 MOH     0.0372 ****
14355 C1    -25.207690    9.895040   -3.509937 C    2342 MOH     0.1166 ****
14356 HC2   -25.566802   10.442910   -4.381093 H    2342 MOH     0.0372 ****
14357 HC3   -24.121694    9.941581   -3.582062 H    2342 MOH     0.0372 ****
14358 O1    -25.568534   10.493124   -2.243509 O    2342 MOH    -0.6497 ****
14359 HO1   -25.640703   11.441893   -2.369374 H    2342 MOH     0.4215 ****
14360 HC1   -26.345647   -4.621861  -12.192501 H    2343 MOH     0.0372 ****
14361 C1    -25.764256   -3.864560  -11.665706 C    2343 MOH     0.1166 ****
14362 HC2   -24.710591   -4.108693  -11.802885 H    2343 MOH     0.0372 ****
14363 HC3   -25.994041   -3.853946  -10.600804 H    2343 MOH     0.0372 ****
14364 O1    -25.892427   -2.604298  -12.217957 O    2343 MOH    -0.6497 ****
14365 HO1   -25.093952   -2.127872  -11.976833 H    2343 MOH     0.4215 ****
14366 HC1   -31.190194    6.735199   -7.110525 H    2344 MOH     0.0372 ****
14367 C1    -30.844938    5.892166   -7.708030 C    2344 MOH     0.1166 ****
14368 HC2   -30.104775    5.360218   -7.109110 H    2344 MOH     0.0372 ****
14369 HC3   -30.403265    6.277961   -8.626562 H    2344 MOH     0.0372 ****
14370 O1    -31.897448    4.974424   -8.041784 O    2344 MOH    -0.6497 ****
14371 HO1   -31.618587    4.461256   -8.803338 H    2344 MOH     0.4215 ****
14372 HC1   -24.032782   15.272487  -13.333064 H    2345 MOH     0.0372 ****
14373 C1    -24.525262   15.708904  -14.202099 C    2345 MOH     0.1166 ****
14374 HC2   -25.467498   16.196353  -13.951783 H    2345 MOH     0.0372 ****
14375 HC3   -24.777564   14.874445  -14.856879 H    2345 MOH     0.0372 ****
14376 O1    -23.687527   16.633995  -14.902134 O    2345 MOH    -0.6497 ****
14377 HO1   -24.228504   17.333732  -15.274073 H    2345 MOH     0.4215 ****
14378 HC1   -26.125100   -4.944377  -16.855163 H    2346 MOH     0.0372 ****
14379 C1    -26.158008   -3.859253  -16.954158 C    2346 MOH     0.1166 ****
14380 HC2   -25.712871   -3.390176  -16.076639 H    2346 MOH     0.0372 ****
14381 HC3   -27.195507   -3.533471  -17.029111 H    2346 MOH     0.0372 ****
14382 O1    -25.472116   -3.482031  -18.119470 O    2346 MOH    -0.6497 ****
14383 HO1   -25.370503   -2.528772  -18.079165 H    2346 MOH     0.4215 ****
14384 HC1   -17.691744    3.872562  -15.672173 H    2347 MOH     0.0372 ****
14385 C1    -18.597607    4.197119  -16.183412 C    2347 MOH     0.1166 ****
14386 HC2   -19.483262    3.804384  -15.684194 H    2347 MOH     0.0372 ****
14387 HC3   -18.590101    3.848883  -17.216495 H    2347 MOH     0.0372 ****
14388 O1    -18.690560    5.589246  -16.169270 O    2347 MOH    -0.6497 ****
14389 HO1   -18.420360    5.874611  -15.293164 H    2347 MOH     0.4215 ****
14390 HC1   -25.157461    8.436369  -13.687325 H    2348 MOH     0.0372 ****
14391 C1    -24.494085    7.614565  -13.417917 C    2348 MOH     0.1166 ****
14392 HC2   -23.477949    8.000768  -13.340135 H    2348 MOH     0.0372 ****
14393 HC3   -24.507941    6.831953  -14.176643 H    2348 MOH     0.0372 ****
14394 O1    -24.872249    7.187538  -12.130983 O    2348 MOH    -0.6497 ****
14395 HO1   -24.818556    7.956677  -11.559641 H    2348 MOH     0.4215 ****
14396 HC1   -21.377548   14.635619   -9.583984 H    2349 MOH     0.0372 ****
14397 C1    -21.717030   13.889750  -10.303112 C    2349 MOH     0.1166 ****
14398 HC2   -22.223366   13.052433   -9.821572 H    2349 MOH     0.0372 ****
14399 HC3   -20.830220   13.492933  -10.798087 H    2349 MOH     0.0372 ****
14400 O1    -22.558230   14.510287  -11.257706 O    2349 MOH    -0.6497 ****
14401 HO1   -22.028799   15.195328  -11.673485 H    2349 MOH     0.4215 ****
14402 HC1   -28.008993   12.131833  -15.421151 H    2350 MOH     0.0372 ****
14403 C1    -27.352546   12.407400  -14.595957 C    2350 MOH     0.1166 ****
14404 HC2   -27.899297   12.371474  -13.652677 H    2350 MOH     0.0372 ****
14405 HC3   -27.006136   13.430062  -14.746571 H    2350 MOH     0.0372 ****
14406 O1    -26.233641   11.535382  -14.530903 O    2350 MOH    -0.6497 ****
14407 HO1   -25.628578   11.861981  -13.860566 H    2350 MOH     0.4215 ****
14408 HC1   -24.232545   16.846692   -7.653583 H    2351 MOH     0.0372 ****
14409 C1    -24.544315   16.427830   -6.696160 C    2351 MOH     0.1166 ****
14410 HC2   -25.071435   17.174107   -6.103605 H    2351 MOH     0.0372 ****
14411 HC3   -23.651731   16.094291   -6.167951 H    2351 MOH     0.0372 ****
14412 O1    -25.358956   15.313720   -6.923141 O    2351 MOH    -0.6497 ****
14413 HO1   -26.044848   15.554995   -7.548931 H    2351 MOH     0.4215 ****
14414 HC1   -29.395212   13.770950   -8.861321 H    2352 MOH     0.0372 ****
14415 C1    -28.813242   14.013449   -9.750861 C    2352 MOH     0.1166 ****
14416 HC2   -28.849616   13.191645  -10.465746 H    2352 MOH     0.0372 ****
14417 HC3   -27.786136   14.156744   -9.413572 H    2352 MOH     0.0372 ****
14418 O1    -29.279164   15.257790  -10.282606 O    2352 MOH    -0.6497 ****
14419 HO1   -28.863472   15.935074   -9.744498 H    2352 MOH     0.4215 ****
14420 HC1   -29.991614   -0.174812  -21.568030 H    2353 MOH     0.0372 ****
14421 C1    -30.728313    0.170974  -20.843245 C    2353 MOH     0.1166 ****
14422 HC2   -30.999090   -0.636949  -20.162302 H    2353 MOH     0.0372 ****
14423 HC3   -31.637062    0.470628  -21.363676 H    2353 MOH     0.0372 ****
14424 O1    -30.288372    1.252424  -20.049165 O    2353 MOH    -0.6497 ****
14425 HO1   -29.340940    1.183838  -19.913400 H    2353 MOH     0.4215 ****
14426 HC1   -31.154398   -2.425485  -15.805817 H    2354 MOH     0.0372 ****
14427 C1    -30.119209   -2.121340  -15.962087 C    2354 MOH     0.1166 ****
14428 HC2   -29.530311   -3.023977  -16.129672 H    2354 MOH     0.0372 ****
14429 HC3   -29.746240   -1.564489  -15.103660 H    2354 MOH     0.0372 ****
14430 O1    -30.121518   -1.389759  -17.138713 O    2354 MOH    -0.6497 ****
14431 HO1   -29.484123   -0.680632  -17.029111 H    2354 MOH     0.4215 ****
14432 HC1   -18.091848    2.766617  -11.235078 H    2355 MOH     0.0372 ****
14433 C1    -17.707910    3.363476  -12.062393 C    2355 MOH     0.1166 ****
14434 HC2   -17.020286    2.746205  -12.640807 H    2355 MOH     0.0372 ****
14435 HC3   -17.206770    4.225288  -11.620452 H    2355 MOH     0.0372 ****
14436 O1    -18.773121    3.803159  -12.849403 O    2355 MOH    -0.6497 ****
14437 HO1   -19.302551    3.047084  -13.111033 H    2355 MOH     0.4215 ****
14438 HC1   -27.625633   11.762776   -6.634642 H    2356 MOH     0.0372 ****
14439 C1    -27.562124   10.839727   -7.210934 C    2356 MOH     0.1166 ****
14440 HC2   -26.530399   10.635603   -7.496605 H    2356 MOH     0.0372 ****
14441 HC3   -28.179312   10.951587   -8.101888 H    2356 MOH     0.0372 ****
14442 O1    -28.080008    9.786446   -6.445844 O    2356 MOH    -0.6497 ****
14443 HO1   -27.830015    8.961785   -6.870108 H    2356 MOH     0.4215 ****
14444 HC1   -18.199812    8.223264  -12.499385 H    2357 MOH     0.0372 ****
14445 C1    -17.559531    7.347979  -12.390491 C    2357 MOH     0.1166 ****
14446 HC2   -17.709642    6.947079  -11.387814 H    2357 MOH     0.0372 ****
14447 HC3   -16.520878    7.660697  -12.496557 H    2357 MOH     0.0372 ****
14448 O1    -17.938850    6.406150  -13.393875 O    2357 MOH    -0.6497 ****
14449 HO1   -18.009864    5.532907  -13.001431 H    2357 MOH     0.4215 ****
14450 HC1   -20.064076   10.436786   -8.078554 H    2358 MOH     0.0372 ****
14451 C1    -19.205557   10.798494   -8.644239 C    2358 MOH     0.1166 ****
14452 HC2   -19.553699   11.317786   -9.536608 H    2358 MOH     0.0372 ****
14453 HC3   -18.576245    9.957911   -8.937689 H    2358 MOH     0.0372 ****
14454 O1    -18.456156   11.688067   -7.848744 O    2358 MOH    -0.6497 ****
14455 HO1   -18.288724   11.269612   -7.000923 H    2358 MOH     0.4215 ****
14456 HC1   -19.265024   11.757877  -18.010576 H    2359 MOH     0.0372 ****
14457 C1    -19.711893   12.171841  -18.914258 C    2359 MOH     0.1166 ****
14458 HC2   -20.739576   12.490683  -18.742431 H    2359 MOH     0.0372 ****
14459 HC3   -19.681293   11.399435  -19.683590 H    2359 MOH     0.0372 ****
14460 O1    -18.901293   13.236144  -19.302460 O    2359 MOH    -0.6497 ****
14461 HO1   -18.719428   13.782381  -18.534542 H    2359 MOH     0.4215 ****
14462 HC1   -27.482450   14.584997   -2.777374 H    2360 MOH     0.0372 ****
14463 C1    -27.044819   13.681543   -3.202346 C    2360 MOH     0.1166 ****
14464 HC2   -26.801177   13.876686   -4.246035 H    2360 MOH     0.0372 ****
14465 HC3   -27.750341   12.855249   -3.109007 H    2360 MOH     0.0372 ****
14466 O1    -25.908593   13.383930   -2.454934 O    2360 MOH    -0.6497 ****
14467 HO1   -25.281014   14.109796   -2.503017 H    2360 MOH     0.4215 ****
14468 HC1   -30.702333    7.387171   -3.410235 H    2361 MOH     0.0372 ****
14469 C1    -31.112829    6.430645   -3.087087 C    2361 MOH     0.1166 ****
14470 HC2   -30.333983    5.668038   -3.065874 H    2361 MOH     0.0372 ****
14471 HC3   -31.898025    6.151812   -3.789244 H    2361 MOH     0.0372 ****
14472 O1    -31.708654    6.575165   -1.831265 O    2361 MOH    -0.6497 ****
14473 HO1   -31.088003    7.024238   -1.252852 H    2361 MOH     0.4215 ****
14474 HC1   -26.391258   -6.497762  -13.692274 H    2362 MOH     0.0372 ****
14475 C1    -25.553523   -6.269551  -14.352005 C    2362 MOH     0.1166 ****
14476 HC2   -25.196143   -5.268118  -14.116539 H    2362 MOH     0.0372 ****
14477 HC3   -25.903974   -6.314458  -15.382967 H    2362 MOH     0.0372 ****
14478 O1    -24.472723   -7.211380  -14.147651 O    2362 MOH    -0.6497 ****
14479 HO1   -23.639607   -6.823135  -14.425544 H    2362 MOH     0.4215 ****
14480 HC1   -25.501561   12.371066   -6.579488 H    2363 MOH     0.0372 ****
14481 C1    -24.576069   12.670721   -6.085927 C    2363 MOH     0.1166 ****
14482 HC2   -24.132086   11.816665   -5.573982 H    2363 MOH     0.0372 ****
14483 HC3   -24.822020   13.422714   -5.336394 H    2363 MOH     0.0372 ****
14484 O1    -23.693878   13.170008   -7.111939 O    2363 MOH    -0.6497 ****
14485 HO1   -23.884403   14.108163   -7.186892 H    2363 MOH     0.4215 ****
14486 HC1   -27.084656   16.240035  -11.231543 H    2364 MOH     0.0372 ****
14487 C1    -26.138956   16.582964  -10.811522 C    2364 MOH     0.1166 ****
14488 HC2   -26.252694   17.557453  -10.335639 H    2364 MOH     0.0372 ****
14489 HC3   -25.409185   16.696457  -11.613381 H    2364 MOH     0.0372 ****
14490 O1    -25.697283   15.660731   -9.839250 O    2364 MOH    -0.6497 ****
14491 HO1   -24.865899   15.272487  -10.121385 H    2364 MOH     0.4215 ****
14492 HC1   -27.166639    8.174274  -16.160784 H    2365 MOH     0.0372 ****
14493 C1    -26.384907    8.847475  -16.512216 C    2365 MOH     0.1166 ****
14494 HC2   -25.825455    8.412691  -17.340238 H    2365 MOH     0.0372 ****
14495 HC3   -25.699592    9.052416  -15.690558 H    2365 MOH     0.0372 ****
14496 O1    -26.958793   10.046909  -16.957694 O    2365 MOH    -0.6497 ****
14497 HO1   -26.763649   10.690308  -16.271800 H    2365 MOH     0.4215 ****
14498 HC1   -27.768354   20.374202  -11.797936 H    2366 MOH     0.0372 ****
14499 C1    -28.569139   19.980243  -11.172146 C    2366 MOH     0.1166 ****
14500 HC2   -29.134942   19.249887  -11.751267 H    2366 MOH     0.0372 ****
14501 HC3   -29.241752   20.757139  -10.810815 H    2366 MOH     0.0372 ****
14502 O1    -28.072040   19.239272  -10.127749 O    2366 MOH    -0.6497 ****
14503 HO1   -27.527599   19.835315   -9.608733 H    2366 MOH     0.4215 ****
14504 HC1   -15.659009   21.613236   -7.291544 H    2367 MOH     0.0372 ****
14505 C1    -15.597810   22.392990   -6.533526 C    2367 MOH     0.1166 ****
14506 HC2   -15.237544   21.947183   -5.605801 H    2367 MOH     0.0372 ****
14507 HC3   -16.590853   22.818385   -6.387862 H    2367 MOH     0.0372 ****
14508 O1    -14.726589   23.415652   -6.961325 O    2367 MOH    -0.6497 ****
14509 HO1   -13.839779   23.055577   -7.027793 H    2367 MOH     0.4215 ****
14510 HC1    -9.400532   26.362388  -13.072142 H    2368 MOH     0.0372 ****
14511 C1     -8.966942   26.555490  -12.091385 C    2368 MOH     0.1166 ****
14512 HC2    -8.681154   27.606321  -12.040473 H    2368 MOH     0.0372 ****
14513 HC3    -8.078978   25.936177  -11.964813 H    2368 MOH     0.0372 ****
14514 O1     -9.921302   26.240730  -11.083758 O    2368 MOH    -0.6497 ****
14515 HO1    -9.720384   25.349116  -10.791015 H    2368 MOH     0.4215 ****
14516 HC1   -16.037751   15.508699  -20.704652 H    2369 MOH     0.0372 ****
14517 C1    -16.224813   14.522780  -20.279681 C    2369 MOH     0.1166 ****
14518 HC2   -16.616833   14.617493  -19.267104 H    2369 MOH     0.0372 ****
14519 HC3   -15.267566   14.006346  -20.211092 H    2369 MOH     0.0372 ****
14520 O1    -17.066012   13.718939  -21.128917 O    2369 MOH    -0.6497 ****
14521 HO1   -17.781926   13.372744  -20.591515 H    2369 MOH     0.4215 ****
14522 HC1   -13.407343   15.980634  -14.067748 H    2370 MOH     0.0372 ****
14523 C1    -14.256048   16.415419  -13.539539 C    2370 MOH     0.1166 ****
14524 HC2   -14.392303   17.442571  -13.877537 H    2370 MOH     0.0372 ****
14525 HC3   -14.091503   16.403171  -12.461909 H    2370 MOH     0.0372 ****
14526 O1    -15.421718   15.717314  -13.873294 O    2370 MOH    -0.6497 ****
14527 HO1   -15.394583   14.916739  -13.343671 H    2370 MOH     0.4215 ****
14528 HC1    -5.330790   24.751032  -17.687428 H    2371 MOH     0.0372 ****
14529 C1     -5.525357   25.492411  -16.912439 C    2371 MOH     0.1166 ****
14530 HC2    -6.589414   25.534461  -16.679801 H    2371 MOH     0.0372 ****
14531 HC3    -5.223981   26.480780  -17.259628 H    2371 MOH     0.0372 ****
14532 O1     -4.855631   25.162138  -15.701165 O    2371 MOH    -0.6497 ****
14533 HO1    -5.073292   24.267666  -15.428929 H    2371 MOH     0.4215 ****
14534 HC1   -14.512969   23.056394  -23.681572 H    2372 MOH     0.0372 ****
14535 C1    -15.305094   22.524038  -23.155485 C    2372 MOH     0.1166 ****
14536 HC2   -15.277958   22.781643  -22.096946 H    2372 MOH     0.0372 ****
14537 HC3   -15.139394   21.456469  -23.297613 H    2372 MOH     0.0372 ****
14538 O1    -16.533695   22.939635  -23.711271 O    2372 MOH    -0.6497 ****
14539 HO1   -17.228247   22.580784  -23.153363 H    2372 MOH     0.4215 ****
14540 HC1   -23.155325   24.142334   -6.835460 H    2373 MOH     0.0372 ****
14541 C1    -24.175503   23.849620   -6.587266 C    2373 MOH     0.1166 ****
14542 HC2   -24.336584   23.907183   -5.511756 H    2373 MOH     0.0372 ****
14543 HC3   -24.383927   22.827366   -6.904050 H    2373 MOH     0.0372 ****
14544 O1    -25.061736   24.742051   -7.188307 O    2373 MOH    -0.6497 ****
14545 HO1   -24.610248   25.118456   -7.947739 H    2373 MOH     0.4215 ****
14546 HC1   -10.447846   29.115207  -16.158663 H    2374 MOH     0.0372 ****
14547 C1    -10.399348   28.027633  -16.209575 C    2374 MOH     0.1166 ****
14548 HC2   -10.777513   27.672865  -17.167704 H    2374 MOH     0.0372 ****
14549 HC3   -11.006144   27.581009  -15.421858 H    2374 MOH     0.0372 ****
14550 O1     -9.062782   27.593257  -16.136036 O    2374 MOH    -0.6497 ****
14551 HO1    -9.095114   26.633873  -16.114822 H    2374 MOH     0.4215 ****
14552 HC1   -11.250940   23.533636  -23.236802 H    2375 MOH     0.0372 ****
14553 C1    -11.052331   24.494244  -22.762333 C    2375 MOH     0.1166 ****
14554 HC2    -9.987698   24.711432  -22.845772 H    2375 MOH     0.0372 ****
14555 HC3   -11.281540   24.459135  -21.697430 H    2375 MOH     0.0372 ****
14556 O1    -11.845611   25.489962  -23.413579 O    2375 MOH    -0.6497 ****
14557 HO1   -11.798268   26.266042  -22.850015 H    2375 MOH     0.4215 ****
14558 HC1   -25.676037   22.246837  -14.791119 H    2376 MOH     0.0372 ****
14559 C1    -24.761514   22.553024  -15.298821 C    2376 MOH     0.1166 ****
14560 HC2   -24.166266   23.207446  -14.661718 H    2376 MOH     0.0372 ****
14561 HC3   -25.036910   23.099260  -16.201090 H    2376 MOH     0.0372 ****
14562 O1    -24.059456   21.413603  -15.696922 O    2376 MOH    -0.6497 ****
14563 HO1   -23.124726   21.612419  -15.607120 H    2376 MOH     0.4215 ****
14564 HC1   -12.409682   18.066375  -18.224829 H    2377 MOH     0.0372 ****
14565 C1    -12.362339   18.789791  -17.410242 C    2377 MOH     0.1166 ****
14566 HC2   -13.155619   19.517289  -17.581362 H    2377 MOH     0.0372 ****
14567 HC3   -11.401628   19.303367  -17.456911 H    2377 MOH     0.0372 ****
14568 O1    -12.547669   18.148024  -16.116237 O    2377 MOH    -0.6497 ****
14569 HO1   -12.739349   18.823675  -15.460749 H    2377 MOH     0.4215 ****
14570 HC1    -5.651797   26.780843  -13.905821 H    2378 MOH     0.0372 ****
14571 C1     -5.569236   27.720630  -13.359934 C    2378 MOH     0.1166 ****
14572 HC2    -6.396002   28.376277  -13.632878 H    2378 MOH     0.0372 ****
14573 HC3    -4.611989   28.182767  -13.604593 H    2378 MOH     0.0372 ****
14574 O1     -5.610228   27.362597  -12.018553 O    2378 MOH    -0.6497 ****
14575 HO1    -5.386216   28.105609  -11.454282 H    2378 MOH     0.4215 ****
14576 HC1   -17.669920   20.751016   -5.212650 H    2379 MOH     0.0372 ****
14577 C1    -17.370276   19.703859   -5.227499 C    2379 MOH     0.1166 ****
14578 HC2   -16.736345   19.515248   -6.094412 H    2379 MOH     0.0372 ****
14579 HC3   -18.238033   19.049845   -5.306695 H    2379 MOH     0.0372 ****
14580 O1    -16.665331   19.392774   -4.033903 O    2379 MOH    -0.6497 ****
14581 HO1   -16.231164   18.544434   -4.152697 H    2379 MOH     0.4215 ****
14582 HC1   -10.864115   15.403371  -17.620253 H    2380 MOH     0.0372 ****
14583 C1    -11.544234   14.834681  -16.985978 C    2380 MOH     0.1166 ****
14584 HC2   -11.189741   14.871832  -15.955723 H    2380 MOH     0.0372 ****
14585 HC3   -11.599082   13.798139  -17.317611 H    2380 MOH     0.0372 ****
14586 O1    -12.776877   15.457668  -17.068002 O    2380 MOH    -0.6497 ****
14587 HO1   -12.674686   16.350507  -16.732127 H    2380 MOH     0.4215 ****
14588 HC1   -16.996153   21.866758  -12.636564 H    2381 MOH     0.0372 ****
14589 C1    -17.136449   21.712440  -13.705710 C    2381 MOH     0.1166 ****
14590 HC2   -17.332748   22.666925  -14.195028 H    2381 MOH     0.0372 ****
14591 HC3   -17.970720   21.033523  -13.881779 H    2381 MOH     0.0372 ****
14592 O1    -15.960964   21.158039  -14.257253 O    2381 MOH    -0.6497 ****
14593 HO1   -15.314331   21.057202  -13.555096 H    2381 MOH     0.4215 ****
14594 HC1   -19.539958   21.660593  -20.005324 H    2382 MOH     0.0372 ****
14595 C1    -19.701039   20.647729  -19.636921 C    2382 MOH     0.1166 ****
14596 HC2   -20.452171   20.692636  -18.849204 H    2382 MOH     0.0372 ****
14597 HC3   -18.776123   20.247237  -19.221850 H    2382 MOH     0.0372 ****
14598 O1    -20.152526   19.801022  -20.693339 O    2382 MOH    -0.6497 ****
14599 HO1   -19.747804   18.942884  -20.543432 H    2382 MOH     0.4215 ****
14600 HC1   -10.534448   15.777735  -12.391198 H    2383 MOH     0.0372 ****
14601 C1    -10.700725   15.864692  -11.317103 C    2383 MOH     0.1166 ****
14602 HC2   -10.628556   16.920830  -11.057595 H    2383 MOH     0.0372 ****
14603 HC3    -9.913797   15.310699  -10.804450 H    2383 MOH     0.0372 ****
14604 O1    -12.026321   15.345808  -11.083050 O    2383 MOH    -0.6497 ****
14605 HO1   -12.337513   15.694452  -10.244422 H    2383 MOH     0.4215 ****
14606 HC1   -10.940903   21.915748  -13.572773 H    2384 MOH     0.0372 ****
14607 C1    -10.957646   20.908599  -13.990674 C    2384 MOH     0.1166 ****
14608 HC2   -10.455929   20.250095  -13.282860 H    2384 MOH     0.0372 ****
14609 HC3   -10.406277   20.880022  -14.931126 H    2384 MOH     0.0372 ****
14610 O1    -12.300563   20.472998  -14.139873 O    2384 MOH    -0.6497 ****
14611 HO1   -12.792465   20.733869  -13.357106 H    2384 MOH     0.4215 ****
14612 HC1   -17.325820   17.378476  -12.034109 H    2385 MOH     0.0372 ****
14613 C1    -17.511726   17.964313  -12.934256 C    2385 MOH     0.1166 ****
14614 HC2   -17.493828   17.340509  -13.828039 H    2385 MOH     0.0372 ****
14615 HC3   -16.764058   18.749782  -13.043151 H    2385 MOH     0.0372 ****
14616 O1    -18.754184   18.552599  -12.804856 O    2385 MOH    -0.6497 ****
14617 HO1   -19.052674   18.663234  -13.710659 H    2385 MOH     0.4215 ****
14618 HC1   -16.141097   20.953507  -10.614946 H    2386 MOH     0.0372 ****
14619 C1    -15.387077   20.199880  -10.842634 C    2386 MOH     0.1166 ****
14620 HC2   -15.873206   19.310307  -11.242150 H    2386 MOH     0.0372 ****
14621 HC3   -14.898062   19.910432   -9.912789 H    2386 MOH     0.0372 ****
14622 O1    -14.452925   20.742034  -11.787329 O    2386 MOH    -0.6497 ****
14623 HO1   -14.236418   21.639772  -11.527821 H    2386 MOH     0.4215 ****
14624 HC1   -20.204488   14.323963  -13.349328 H    2387 MOH     0.0372 ****
14625 C1    -20.611520   15.324579  -13.494285 C    2387 MOH     0.1166 ****
14626 HC2   -21.657101   15.278855  -13.799755 H    2387 MOH     0.0372 ****
14627 HC3   -20.054954   15.782226  -14.310993 H    2387 MOH     0.0372 ****
14628 O1    -20.456790   16.148424  -12.337458 O    2387 MOH    -0.6497 ****
14629 HO1   -20.173888   17.028608  -12.597673 H    2387 MOH     0.4215 ****
14630 HC1   -20.798581   18.729370  -11.126891 H    2388 MOH     0.0372 ****
14631 C1    -20.710247   19.715290  -10.670807 C    2388 MOH     0.1166 ****
14632 HC2   -21.311269   19.747133   -9.762882 H    2388 MOH     0.0372 ****
14633 HC3   -21.062431   20.450545  -11.394178 H    2388 MOH     0.0372 ****
14634 O1    -19.370217   19.919006  -10.363216 O    2388 MOH    -0.6497 ****
14635 HO1   -18.885243   19.452378  -11.046988 H    2388 MOH     0.4215 ****
14636 HC1   -18.835013   13.892036  -10.313011 H    2389 MOH     0.0372 ****
14637 C1    -17.758832   13.900201  -10.482717 C    2389 MOH     0.1166 ****
14638 HC2   -17.338521   14.760380   -9.962993 H    2389 MOH     0.0372 ****
14639 HC3   -17.555028   13.960622  -11.551862 H    2389 MOH     0.0372 ****
14640 O1    -17.165316   12.755473   -9.982085 O    2389 MOH    -0.6497 ****
14641 HO1   -17.627196   12.494194   -9.183055 H    2389 MOH     0.4215 ****
14642 HC1   -23.019648   25.545483  -13.443373 H    2390 MOH     0.0372 ****
14643 C1    -21.987923   25.261751  -13.649141 C    2390 MOH     0.1166 ****
14644 HC2   -21.717146   24.435865  -12.992239 H    2390 MOH     0.0372 ****
14645 HC3   -21.339559   26.112540  -13.438423 H    2390 MOH     0.0372 ****
14646 O1    -21.849936   24.942501  -15.011029 O    2390 MOH    -0.6497 ****
14647 HO1   -22.146694   25.735319  -15.463577 H    2390 MOH     0.4215 ****
14648 HC1   -17.525583   24.817985  -19.129926 H    2391 MOH     0.0372 ****
14649 C1    -17.511149   25.525479  -19.959362 C    2391 MOH     0.1166 ****
14650 HC2   -18.501882   25.956589  -20.100783 H    2391 MOH     0.0372 ****
14651 HC3   -17.172244   25.032315  -20.870116 H    2391 MOH     0.0372 ****
14652 O1    -16.634154   26.577127  -19.652478 O    2391 MOH    -0.6497 ****
14653 HO1   -16.437855   26.584067  -18.712733 H    2391 MOH     0.4215 ****
14654 HC1   -11.394123   20.983309   -5.800256 H    2392 MOH     0.0372 ****
14655 C1    -11.319067   22.025159   -6.109969 C    2392 MOH     0.1166 ****
14656 HC2   -10.280414   22.249695   -6.353213 H    2392 MOH     0.0372 ****
14657 HC3   -11.681066   22.626508   -5.274875 H    2392 MOH     0.0372 ****
14658 O1    -12.207032   22.182742   -7.186185 O    2392 MOH    -0.6497 ****
14659 HO1   -11.839837   21.662226   -7.903898 H    2392 MOH     0.4215 ****
14660 HC1   -21.669226   17.070657   -5.251541 H    2393 MOH     0.0372 ****
14661 C1    -20.676761   17.091478   -5.701968 C    2393 MOH     0.1166 ****
14662 HC2   -20.153681   18.002688   -5.412054 H    2393 MOH     0.0372 ****
14663 HC3   -20.736805   17.035956   -6.788084 H    2393 MOH     0.0372 ****
14664 O1    -19.941794   16.026766   -5.253662 O    2393 MOH    -0.6497 ****
14665 HO1   -20.388663   15.230682   -5.549233 H    2393 MOH     0.4215 ****
14666 HC1   -12.055766   23.779401  -17.118914 H    2394 MOH     0.0372 ****
14667 C1    -12.095026   22.709791  -17.323975 C    2394 MOH     0.1166 ****
14668 HC2   -12.873294   22.281538  -16.692529 H    2394 MOH     0.0372 ****
14669 HC3   -11.126232   22.273373  -17.080023 H    2394 MOH     0.0372 ****
14670 O1    -12.383701   22.417893  -18.692227 O    2394 MOH    -0.6497 ****
14671 HO1   -11.954153   21.603438  -18.964463 H    2394 MOH     0.4215 ****
14672 HC1    -7.894226   22.459535  -19.365392 H    2395 MOH     0.0372 ****
14673 C1     -8.416728   23.388708  -19.137704 C    2395 MOH     0.1166 ****
14674 HC2    -9.449030   23.175602  -18.859104 H    2395 MOH     0.0372 ****
14675 HC3    -8.376313   24.034965  -20.013809 H    2395 MOH     0.0372 ****
14676 O1     -7.729103   23.952090  -18.071387 O    2395 MOH    -0.6497 ****
14677 HO1    -7.266646   23.236839  -17.628738 H    2395 MOH     0.4215 ****
14678 HC1   -14.493917   17.673640   -9.725406 H    2396 MOH     0.0372 ****
14679 C1    -14.242769   17.153123   -8.801217 C    2396 MOH     0.1166 ****
14680 HC2   -14.909609   16.299476   -8.680302 H    2396 MOH     0.0372 ****
14681 HC3   -14.365745   17.823059   -7.950567 H    2396 MOH     0.0372 ****
14682 O1    -12.902739   16.722421   -8.898091 O    2396 MOH    -0.6497 ****
14683 HO1   -12.712791   16.166796   -8.139365 H    2396 MOH     0.4215 ****
14684 HC1   -13.021096   24.604063  -19.746523 H    2397 MOH     0.0372 ****
14685 C1    -13.958135   24.860035  -20.239376 C    2397 MOH     0.1166 ****
14686 HC2   -14.796448   24.528129  -19.626315 H    2397 MOH     0.0372 ****
14687 HC3   -13.976611   24.361155  -21.208113 H    2397 MOH     0.0372 ****
14688 O1    -13.988735   26.243588  -20.456458 O    2397 MOH    -0.6497 ****
14689 HO1   -14.904990   26.484863  -20.608486 H    2397 MOH     0.4215 ****
14690 HC1   -16.350675   19.894102  -21.454186 H    2398 MOH     0.0372 ****
14691 C1    -16.045257   18.913898  -21.821174 C    2398 MOH     0.1166 ****
14692 HC2   -15.096093   18.993507  -22.350797 H    2398 MOH     0.0372 ****
14693 HC3   -16.811978   18.521572  -22.487976 H    2398 MOH     0.0372 ****
14694 O1    -15.891681   17.993298  -20.747079 O    2398 MOH    -0.6497 ****
14695 HO1   -15.042399   17.559330  -20.855266 H    2398 MOH     0.4215 ****
14696 HC1   -10.509622   17.245796  -14.781219 H    2399 MOH     0.0372 ****
14697 C1     -9.638401   17.749166  -15.200533 C    2399 MOH     0.1166 ****
14698 HC2    -9.936313   18.698343  -15.643889 H    2399 MOH     0.0372 ****
14699 HC3    -9.199615   17.137610  -15.989664 H    2399 MOH     0.0372 ****
14700 O1     -8.669607   18.024325  -14.214826 O    2399 MOH    -0.6497 ****
14701 HO1    -8.239481   17.186191  -14.031686 H    2399 MOH     0.4215 ****
14702 HC1   -21.478123   18.831432  -15.618433 H    2400 MOH     0.0372 ****
14703 C1    -20.621335   18.573419  -16.242102 C    2400 MOH     0.1166 ****
14704 HC2   -20.435428   19.366646  -16.965472 H    2400 MOH     0.0372 ****
14705 HC3   -20.867286   17.669557  -16.799302 H    2400 MOH     0.0372 ****
14706 O1    -19.457974   18.382767  -15.440950 O    2400 MOH    -0.6497 ****
14707 HO1   -18.761690   18.034940  -16.002392 H    2400 MOH     0.4215 ****
14708 HC1   -15.423450   18.491361  -16.435142 H    2401 MOH     0.0372 ****
14709 C1    -15.921704   17.715690  -17.014969 C    2401 MOH     0.1166 ****
14710 HC2   -15.194820   16.970228  -17.337410 H    2401 MOH     0.0372 ****
14711 HC3   -16.384161   18.189666  -17.881175 H    2401 MOH     0.0372 ****
14712 O1    -16.896848   17.084946  -16.218060 O    2401 MOH    -0.6497 ****
14713 HO1   -16.425153   16.715889  -15.468527 H    2401 MOH     0.4215 ****
14714 HC1   -12.082902   24.543234   -9.248108 H    2402 MOH     0.0372 ****
14715 C1    -12.705285   25.437706   -9.257301 C    2402 MOH     0.1166 ****
14716 HC2   -12.261303   26.224809   -8.647775 H    2402 MOH     0.0372 ****
14717 HC3   -13.676966   25.159689   -8.847886 H    2402 MOH     0.0372 ****
14718 O1    -12.884841   25.890453  -10.578883 O    2402 MOH    -0.6497 ****
14719 HO1   -12.027476   26.166021  -10.911931 H    2402 MOH     0.4215 ****
14720 HC1   -16.454021   24.722863  -11.407613 H    2403 MOH     0.0372 ****
14721 C1    -16.000223   25.602230  -10.950822 C    2403 MOH     0.1166 ****
14722 HC2   -15.163065   25.919031  -11.573076 H    2403 MOH     0.0372 ****
14723 HC3   -15.696537   25.353199   -9.934002 H    2403 MOH     0.0372 ****
14724 O1    -16.950542   26.599989  -10.986177 O    2403 MOH    -0.6497 ****
14725 HO1   -17.278477   26.655511  -11.887031 H    2403 MOH     0.4215 ****
14726 HC1    -9.091073   28.041922   -6.030773 H    2404 MOH     0.0372 ****
14727 C1     -9.343952   28.906592   -5.417004 C    2404 MOH     0.1166 ****
14728 HC2    -8.536239   29.089895   -4.709190 H    2404 MOH     0.0372 ****
14729 HC3   -10.261939   28.673890   -4.878189 H    2404 MOH     0.0372 ****
14730 O1     -9.536210   30.014986   -6.273310 O    2404 MOH    -0.6497 ****
14731 HO1   -10.221525   29.743909   -6.888493 H    2404 MOH     0.4215 ****
14732 HC1   -12.831725   20.782451   -9.564892 H    2405 MOH     0.0372 ****
14733 C1    -12.009001   20.091695   -9.750154 C    2405 MOH     0.1166 ****
14734 HC2   -11.733605   20.212944  -10.797379 H    2405 MOH     0.0372 ****
14735 HC3   -12.317306   19.051886   -9.643381 H    2405 MOH     0.0372 ****
14736 O1    -10.918964   20.402372   -8.865564 O    2405 MOH    -0.6497 ****
14737 HO1   -10.308127   19.661809   -8.852836 H    2405 MOH     0.4215 ****
14738 HC1   -17.084487   22.123955  -18.760109 H    2406 MOH     0.0372 ****
14739 C1    -16.157263   21.947183  -18.216344 C    2406 MOH     0.1166 ****
14740 HC2   -16.223081   21.022501  -17.642880 H    2406 MOH     0.0372 ****
14741 HC3   -15.933828   22.783684  -17.553785 H    2406 MOH     0.0372 ****
14742 O1    -15.153828   21.845121  -19.146896 O    2406 MOH    -0.6497 ****
14743 HO1   -14.343805   22.186008  -18.760109 H    2406 MOH     0.4215 ****
14744 HC1    -7.997571   21.740201  -10.629795 H    2407 MOH     0.0372 ****
14745 C1     -8.828956   22.423609  -10.799501 C    2407 MOH     0.1166 ****
14746 HC2    -9.750984   21.963513  -10.442412 H    2407 MOH     0.0372 ****
14747 HC3    -8.899392   22.611811  -11.870767 H    2407 MOH     0.0372 ****
14748 O1     -8.501021   23.644271  -10.147548 O    2407 MOH    -0.6497 ****
14749 HO1    -7.887875   23.447087   -9.435492 H    2407 MOH     0.4215 ****
14750 HC1   -15.491001   23.969645   -2.146635 H    2408 MOH     0.0372 ****
14751 C1    -16.382429   24.596306   -2.178455 C    2408 MOH     0.1166 ****
14752 HC2   -17.270971   23.965563   -2.218760 H    2408 MOH     0.0372 ****
14753 HC3   -16.373192   25.214394   -3.076481 H    2408 MOH     0.0372 ****
14754 O1    -16.372037   25.443830   -1.056984 O    2408 MOH    -0.6497 ****
14755 HO1   -15.616286   26.023951   -1.173656 H    2408 MOH     0.4215 ****
14756 HC1    -8.237749   24.566504  -14.607271 H    2409 MOH     0.0372 ****
14757 C1     -9.247535   24.245621  -14.863243 C    2409 MOH     0.1166 ****
14758 HC2    -9.944974   24.676323  -14.144116 H    2409 MOH     0.0372 ****
14759 HC3    -9.328941   23.159272  -14.828595 H    2409 MOH     0.0372 ****
14760 O1     -9.602605   24.704900  -16.135328 O    2409 MOH    -0.6497 ****
14761 HO1    -9.003893   24.297468  -16.764654 H    2409 MOH     0.4215 ****
14762 HC1   -13.834005   25.231541   -3.560142 H    2410 MOH     0.0372 ****
14763 C1    -13.609416   26.297477   -3.509937 C    2410 MOH     0.1166 ****
14764 HC2   -13.968528   26.845346   -4.381093 H    2410 MOH     0.0372 ****
14765 HC3   -12.523420   26.344017   -3.582062 H    2410 MOH     0.0372 ****
14766 O1    -13.970260   26.895561   -2.243509 O    2410 MOH    -0.6497 ****
14767 HO1   -14.042429   27.844330   -2.369374 H    2410 MOH     0.4215 ****
14768 HC1   -14.747373   11.780576  -12.192501 H    2411 MOH     0.0372 ****
14769 C1    -14.165982   12.537876  -11.665706 C    2411 MOH     0.1166 ****
14770 HC2   -13.112317   12.293744  -11.802885 H    2411 MOH     0.0372 ****
14771 HC3   -14.395767   12.548491  -10.600804 H    2411 MOH     0.0372 ****
14772 O1    -14.294153   13.798139  -12.217957 O    2411 MOH    -0.6497 ****
14773 HO1   -13.495678   14.274565  -11.976833 H    2411 MOH     0.4215 ****
14774 HC1   -19.591919   23.137635   -7.110525 H    2412 MOH     0.0372 ****
14775 C1    -19.246664   22.294602   -7.708030 C    2412 MOH     0.1166 ****
14776 HC2   -18.506501   21.762655   -7.109110 H    2412 MOH     0.0372 ****
14777 HC3   -18.804991   22.680397   -8.626562 H    2412 MOH     0.0372 ****
14778 O1    -20.299174   21.376860   -8.041784 O    2412 MOH    -0.6497 ****
14779 HO1   -20.020313   20.863692   -8.803338 H    2412 MOH     0.4215 ****
14780 HC1   -14.526825   11.458060  -16.855163 H    2413 MOH     0.0372 ****
14781 C1    -14.559734   12.543184  -16.954158 C    2413 MOH     0.1166 ****
14782 HC2   -14.114597   13.012261  -16.076639 H    2413 MOH     0.0372 ****
14783 HC3   -15.597233   12.868966  -17.029111 H    2413 MOH     0.0372 ****
14784 O1    -13.873842   12.920405  -18.119470 O    2413 MOH    -0.6497 ****
14785 HO1   -13.772229   13.873665  -18.079165 H    2413 MOH     0.4215 ****
14786 HC1    -6.093470   20.274998  -15.672173 H    2414 MOH     0.0372 ****
14787 C1     -6.999333   20.599555  -16.183412 C    2414 MOH     0.1166 ****
14788 HC2    -7.884988   20.206821  -15.684194 H    2414 MOH     0.0372 ****
14789 HC3    -6.991827   20.251320  -17.216495 H    2414 MOH     0.0372 ****
14790 O1     -7.092286   21.991682  -16.169270 O    2414 MOH    -0.6497 ****
14791 HO1    -6.822086   22.277048  -15.293164 H    2414 MOH     0.4215 ****
14792 HC1   -13.559186   24.838806  -13.687325 H    2415 MOH     0.0372 ****
14793 C1    -12.895811   24.017002  -13.417917 C    2415 MOH     0.1166 ****
14794 HC2   -11.879674   24.403205  -13.340135 H    2415 MOH     0.0372 ****
14795 HC3   -12.909667   23.234390  -14.176643 H    2415 MOH     0.0372 ****
14796 O1    -13.273975   23.589974  -12.130983 O    2415 MOH    -0.6497 ****
14797 HO1   -13.220282   24.359114  -11.559641 H    2415 MOH     0.4215 ****
14798 HC1   -19.072881   23.801855  -18.564947 H    2416 MOH     0.0372 ****
14799 C1    -19.703348   23.488320  -17.733390 C    2416 MOH     0.1166 ****
14800 HC2   -20.679647   23.175602  -18.103914 H    2416 MOH     0.0372 ****
14801 HC3   -19.873666   24.315431  -17.043254 H    2416 MOH     0.0372 ****
14802 O1    -19.101172   22.434223  -17.037597 O    2416 MOH    -0.6497 ****
14803 HO1   -19.751845   22.079864  -16.428071 H    2416 MOH     0.4215 ****
14804 HC1   -27.072647   18.466458  -15.368118 H    2417 MOH     0.0372 ****
14805 C1    -26.428901   19.250703  -15.764805 C    2417 MOH     0.1166 ****
14806 HC2   -26.394838   20.052094  -15.027292 H    2417 MOH     0.0372 ****
14807 HC3   -26.827850   19.690795  -16.679801 H    2417 MOH     0.0372 ****
14808 O1    -25.117161   18.786117  -15.995321 O    2417 MOH    -0.6497 ****
14809 HO1   -24.674911   19.573219  -16.320591 H    2417 MOH     0.4215 ****
14810 HC1   -20.302638   25.607129  -11.189824 H    2418 MOH     0.0372 ****
14811 C1    -20.139825   25.383001  -10.135528 C    2418 MOH     0.1166 ****
14812 HC2   -19.572290   24.456277  -10.043604 H    2418 MOH     0.0372 ****
14813 HC3   -21.123630   25.265425   -9.681565 H    2418 MOH     0.0372 ****
14814 O1    -19.447004   26.459551   -9.543679 O    2418 MOH    -0.6497 ****
14815 HO1   -18.608692   26.550183  -10.001884 H    2418 MOH     0.4215 ****
14816 HC1   -22.367242   19.540968   -6.430288 H    2419 MOH     0.0372 ****
14817 C1    -22.760418   19.975752   -5.511756 C    2419 MOH     0.1166 ****
14818 HC2   -22.944592   21.040464   -5.653178 H    2419 MOH     0.0372 ****
14819 HC3   -22.061247   19.831640   -4.687977 H    2419 MOH     0.0372 ****
14820 O1    -23.924933   19.314798   -5.182952 O    2419 MOH    -0.6497 ****
14821 HO1   -24.349286   19.764280   -4.448268 H    2419 MOH     0.4215 ****
14822 HC1   -18.393340   16.227624  -21.568030 H    2420 MOH     0.0372 ****
14823 C1    -19.130039   16.573411  -20.843245 C    2420 MOH     0.1166 ****
14824 HC2   -19.400816   15.765487  -20.162302 H    2420 MOH     0.0372 ****
14825 HC3   -20.038788   16.873065  -21.363676 H    2420 MOH     0.0372 ****
14826 O1    -18.690098   17.654860  -20.049165 O    2420 MOH    -0.6497 ****
14827 HO1   -17.742666   17.586275  -19.913400 H    2420 MOH     0.4215 ****
14828 HC1   -19.556124   13.976952  -15.805817 H    2421 MOH     0.0372 ****
14829 C1    -18.520935   14.281097  -15.962087 C    2421 MOH     0.1166 ****
14830 HC2   -17.932037   13.378460  -16.129672 H    2421 MOH     0.0372 ****
14831 HC3   -18.147966   14.837947  -15.103660 H    2421 MOH     0.0372 ****
14832 O1    -18.523244   15.012678  -17.138713 O    2421 MOH    -0.6497 ****
14833 HO1   -17.885849   15.721805  -17.029111 H    2421 MOH     0.4215 ****
14834 HC1    -6.493574   19.169053  -11.235078 H    2422 MOH     0.0372 ****
14835 C1     -6.109636   19.765912  -12.062393 C    2422 MOH     0.1166 ****
14836 HC2    -5.422012   19.148641  -12.640807 H    2422 MOH     0.0372 ****
14837 HC3    -5.608496   20.627725  -11.620452 H    2422 MOH     0.0372 ****
14838 O1     -7.174847   20.205596  -12.849403 O    2422 MOH    -0.6497 ****
14839 HO1    -7.704277   19.449520  -13.111033 H    2422 MOH     0.4215 ****
14840 HC1   -16.027359   28.165213   -6.634642 H    2423 MOH     0.0372 ****
14841 C1    -15.963850   27.242163   -7.210934 C    2423 MOH     0.1166 ****
14842 HC2   -14.932125   27.038039   -7.496605 H    2423 MOH     0.0372 ****
14843 HC3   -16.581038   27.354023   -8.101888 H    2423 MOH     0.0372 ****
14844 O1    -16.481734   26.188883   -6.445844 O    2423 MOH    -0.6497 ****
14845 HO1   -16.231741   25.364221   -6.870108 H    2423 MOH     0.4215 ****
14846 HC1    -6.601538   24.625700  -12.499385 H    2424 MOH     0.0372 ****
14847 C1     -5.961257   23.750416  -12.390491 C    2424 MOH     0.1166 ****
14848 HC2    -6.111368   23.349516  -11.387814 H    2424 MOH     0.0372 ****
14849 HC3    -4.922604   24.063134  -12.496557 H    2424 MOH     0.0372 ****
14850 O1     -6.340576   22.808587  -13.393875 O    2424 MOH    -0.6497 ****
14851 HO1    -6.411590   21.935344  -13.001431 H    2424 MOH     0.4215 ****
14852 HC1    -8.465802   26.839222   -8.078554 H    2425 MOH     0.0372 ****
14853 C1     -7.607283   27.200930   -8.644239 C    2425 MOH     0.1166 ****
14854 HC2    -7.955425   27.720222   -9.536608 H    2425 MOH     0.0372 ****
14855 HC3    -6.977971   26.360347   -8.937689 H    2425 MOH     0.0372 ****
14856 O1     -6.857882   28.090503   -7.848744 O    2425 MOH    -0.6497 ****
14857 HO1    -6.690450   27.672049   -7.000923 H    2425 MOH     0.4215 ****
14858 HC1    -7.666750   28.160314  -18.010576 H    2426 MOH     0.0372 ****
14859 C1     -8.113619   28.574278  -18.914258 C    2426 MOH     0.1166 ****
14860 HC2    -9.141302   28.893119  -18.742431 H    2426 MOH     0.0372 ****
14861 HC3    -8.083019   27.801872  -19.683590 H    2426 MOH     0.0372 ****
14862 O1     -7.303019   29.638581  -19.302460 O    2426 MOH    -0.6497 ****
14863 HO1    -7.121154   30.184817  -18.534542 H    2426 MOH     0.4215 ****
14864 HC1   -22.834896   20.046787   -1.212547 H    2427 MOH     0.0372 ****
14865 C1    -21.940580   19.604246   -0.772727 C    2427 MOH     0.1166 ****
14866 HC2   -21.874762   19.877364    0.280155 H    2427 MOH     0.0372 ****
14867 HC3   -21.050306   19.974119   -1.281844 H    2427 MOH     0.0372 ****
14868 O1    -21.991965   18.191707   -0.888692 O    2427 MOH    -0.6497 ****
14869 HO1   -21.086679   17.883480   -0.800304 H    2427 MOH     0.4215 ****
14870 HC1   -19.104058   23.789608   -3.410235 H    2428 MOH     0.0372 ****
14871 C1    -19.514555   22.833082   -3.087087 C    2428 MOH     0.1166 ****
14872 HC2   -18.735709   22.070474   -3.065874 H    2428 MOH     0.0372 ****
14873 HC3   -20.299751   22.554248   -3.789244 H    2428 MOH     0.0372 ****
14874 O1    -20.110380   22.977602   -1.831265 O    2428 MOH    -0.6497 ****
14875 HO1   -19.489728   23.426675   -1.252852 H    2428 MOH     0.4215 ****
14876 HC1   -22.329714   18.897160  -19.143361 H    2429 MOH     0.0372 ****
14877 C1    -23.211906   19.480547  -18.882438 C    2429 MOH     0.1166 ****
14878 HC2   -22.907642   20.479122  -18.571311 H    2429 MOH     0.0372 ****
14879 HC3   -23.747109   18.990649  -18.069266 H    2429 MOH     0.0372 ****
14880 O1    -24.032898   19.535660  -20.049872 O    2429 MOH    -0.6497 ****
14881 HO1   -24.123542   18.646904  -20.402718 H    2429 MOH     0.4215 ****
14882 HC1   -14.792984    9.904675  -13.692274 H    2430 MOH     0.0372 ****
14883 C1    -13.955249   10.132886  -14.352005 C    2430 MOH     0.1166 ****
14884 HC2   -13.597869   11.134319  -14.116539 H    2430 MOH     0.0372 ****
14885 HC3   -14.305700   10.087978  -15.382967 H    2430 MOH     0.0372 ****
14886 O1    -12.874449    9.191057  -14.147651 O    2430 MOH    -0.6497 ****
14887 HO1   -12.041333    9.579301  -14.425544 H    2430 MOH     0.4215 ****
14888 HC1   -20.599396   20.759997  -14.076941 H    2431 MOH     0.0372 ****
14889 C1    -20.911165   21.803480  -14.112296 C    2431 MOH     0.1166 ****
14890 HC2   -20.105184   22.460759  -13.784199 H    2431 MOH     0.0372 ****
14891 HC3   -21.754096   21.926771  -13.433474 H    2431 MOH     0.0372 ****
14892 O1    -21.364385   22.149674  -15.406301 O    2431 MOH    -0.6497 ****
14893 HO1   -21.575695   23.085379  -15.376603 H    2431 MOH     0.4215 ****
14894 HC1   -24.874097   19.930845  -13.260232 H    2432 MOH     0.0372 ****
14895 C1    -24.102757   19.637722  -12.547469 C    2432 MOH     0.1166 ****
14896 HC2   -23.204977   19.381343  -13.110326 H    2432 MOH     0.0372 ****
14897 HC3   -24.433001   18.749374  -12.008653 H    2432 MOH     0.0372 ****
14898 O1    -23.842372   20.715090  -11.638837 O    2432 MOH    -0.6497 ****
14899 HO1   -24.508634   20.690187  -10.947993 H    2432 MOH     0.4215 ****
14900 HC1   -25.003424   20.541584   -7.377104 H    2433 MOH     0.0372 ****
14901 C1    -24.520181   20.390941   -8.342305 C    2433 MOH     0.1166 ****
14902 HC2   -24.064652   19.401347   -8.362104 H    2433 MOH     0.0372 ****
14903 HC3   -23.759811   21.160080   -8.480898 H    2433 MOH     0.0372 ****
14904 O1    -25.551329   20.440339   -9.328719 O    2433 MOH    -0.6497 ****
14905 HO1   -26.064016   21.241322   -9.198611 H    2433 MOH     0.4215 ****
14906 HC1   -15.568365   24.576710  -16.160784 H    2434 MOH     0.0372 ****
14907 C1    -14.786633   25.249912  -16.512216 C    2434 MOH     0.1166 ****
14908 HC2   -14.227181   24.815127  -17.340238 H    2434 MOH     0.0372 ****
14909 HC3   -14.101318   25.454852  -15.690558 H    2434 MOH     0.0372 ****
14910 O1    -15.360519   26.449345  -16.957694 O    2434 MOH    -0.6497 ****
14911 HO1   -15.165375   27.092744  -16.271800 H    2434 MOH     0.4215 ****
14912 HC1    -4.439477   31.911136  -20.704652 H    2435 MOH     0.0372 ****
14913 C1     -4.626538   30.925216  -20.279681 C    2435 MOH     0.1166 ****
14914 HC2    -5.018559   31.019930  -19.267104 H    2435 MOH     0.0372 ****
14915 HC3    -3.669292   30.408782  -20.211092 H    2435 MOH     0.0372 ****
14916 O1     -5.467738   30.121375  -21.128917 O    2435 MOH    -0.6497 ****
14917 HO1    -6.183652   29.775181  -20.591515 H    2435 MOH     0.4215 ****
14918 HC1     0.734159   31.805808  -17.620253 H    2436 MOH     0.0372 ****
14919 C1      0.054040   31.237118  -16.985978 C    2436 MOH     0.1166 ****
14920 HC2     0.408533   31.274268  -15.955723 H    2436 MOH     0.0372 ****
14921 HC3    -0.000808   30.200575  -17.317611 H    2436 MOH     0.0372 ****
14922 O1     -1.178603   31.860105  -17.068002 O    2436 MOH    -0.6497 ****
14923 HO1    -1.076412   32.752944  -16.732127 H    2436 MOH     0.4215 ****
14924 HC1     1.063826   32.180171  -12.391198 H    2437 MOH     0.0372 ****
14925 C1      0.897549   32.267128  -11.317103 C    2437 MOH     0.1166 ****
14926 HC2     0.969718   33.323267  -11.057595 H    2437 MOH     0.0372 ****
14927 HC3     1.684477   31.713135  -10.804450 H    2437 MOH     0.0372 ****
14928 O1     -0.428047   31.748245  -11.083050 O    2437 MOH    -0.6497 ****
14929 HO1    -0.739239   32.096889  -10.244422 H    2437 MOH     0.4215 ****
14930 HC1    -7.236739   30.294473  -10.313011 H    2438 MOH     0.0372 ****
14931 C1     -6.160558   30.302638  -10.482717 C    2438 MOH     0.1166 ****
14932 HC2    -5.740247   31.162817   -9.962993 H    2438 MOH     0.0372 ****
14933 HC3    -5.956754   30.363058  -11.551862 H    2438 MOH     0.0372 ****
14934 O1     -5.567042   29.157909   -9.982085 O    2438 MOH    -0.6497 ****
14935 HO1    -6.028922   28.896630   -9.183055 H    2438 MOH     0.4215 ****
14936 HC1    -3.149099   28.183012  -12.192501 H    2439 MOH     0.0372 ****
14937 C1     -2.567707   28.940313  -11.665706 C    2439 MOH     0.1166 ****
14938 HC2    -1.514043   28.696181  -11.802885 H    2439 MOH     0.0372 ****
14939 HC3    -2.797493   28.950927  -10.600804 H    2439 MOH     0.0372 ****
14940 O1     -2.695879   30.200575  -12.217957 O    2439 MOH    -0.6497 ****
14941 HO1    -1.897404   30.677001  -11.976833 H    2439 MOH     0.4215 ****
14942 HC1    -2.928551   27.860496  -16.855163 H    2440 MOH     0.0372 ****
14943 C1     -2.961460   28.945620  -16.954158 C    2440 MOH     0.1166 ****
14944 HC2    -2.516323   29.414697  -16.076639 H    2440 MOH     0.0372 ****
14945 HC3    -3.998959   29.271402  -17.029111 H    2440 MOH     0.0372 ****
14946 O1     -2.275568   29.322842  -18.119470 O    2440 MOH    -0.6497 ****
14947 HO1    -2.173955   30.276101  -18.079165 H    2440 MOH     0.4215 ****
14948 HC1    -3.194710   26.307111  -13.692274 H    2441 MOH     0.0372 ****
14949 C1     -2.356975   26.535322  -14.352005 C    2441 MOH     0.1166 ****
14950 HC2    -1.999595   27.536755  -14.116539 H    2441 MOH     0.0372 ****
14951 HC3    -2.707426   26.490415  -15.382967 H    2441 MOH     0.0372 ****
14952 O1     -1.276175   25.593493  -14.147651 O    2441 MOH    -0.6497 ****
14953 HO1    -0.443058   25.981738  -14.425544 H    2441 MOH     0.4215 ****
14954 HC1   -23.266638   -7.831264  -17.415050 H    2442 MOH     0.0372 ****
14955 C1    -23.977934   -8.657150  -17.425657 C    2442 MOH     0.1166 ****
14956 HC2   -23.615935   -9.388323  -18.149027 H    2442 MOH     0.0372 ****
14957 HC3   -24.966935   -8.284828  -17.695772 H    2442 MOH     0.0372 ****
14958 O1    -24.041442   -9.230739  -16.140844 O    2442 MOH    -0.6497 ****
14959 HO1   -24.317416   -8.546923  -15.526368 H    2442 MOH     0.4215 ****
14960 HC1   -28.100792   -8.176642  -20.533391 H    2443 MOH     0.0372 ****
14961 C1    -28.143516   -7.302582  -21.183222 C    2443 MOH     0.1166 ****
14962 HC2   -27.342731   -6.602436  -20.944927 H    2443 MOH     0.0372 ****
14963 HC3   -29.082865   -6.786556  -20.988061 H    2443 MOH     0.0372 ****
14964 O1    -28.142939   -7.656942  -22.574808 O    2443 MOH    -0.6497 ****
14965 HO1   -28.033819   -6.864532  -23.105846 H    2443 MOH     0.4215 ****
14966 HC1   -20.689347  -12.964170  -20.235699 H    2444 MOH     0.0372 ****
14967 C1    -20.942226  -12.099500  -19.621930 C    2444 MOH     0.1166 ****
14968 HC2   -20.134513  -11.916196  -18.914117 H    2444 MOH     0.0372 ****
14969 HC3   -21.860213  -12.332201  -19.083115 H    2444 MOH     0.0372 ****
14970 O1    -21.134484  -10.991106  -20.478237 O    2444 MOH    -0.6497 ****
14971 HO1   -21.819799  -11.262182  -21.093420 H    2444 MOH     0.4215 ****
14972 HC1   -27.089274  -17.036446  -16.351562 H    2445 MOH     0.0372 ****
14973 C1    -27.980703  -16.409785  -16.383381 C    2445 MOH     0.1166 ****
14974 HC2   -28.869245  -17.040529  -16.423687 H    2445 MOH     0.0372 ****
14975 HC3   -27.971466  -15.791697  -17.281407 H    2445 MOH     0.0372 ****
14976 O1    -27.970311  -15.562262  -15.261910 O    2445 MOH    -0.6497 ****
14977 HO1   -27.214559  -14.982141  -15.378583 H    2445 MOH     0.4215 ****
14978 HC1   -25.432279  -15.774551  -17.765068 H    2446 MOH     0.0372 ****
14979 C1    -25.207690  -14.708614  -17.714863 C    2446 MOH     0.1166 ****
14980 HC2   -25.566802  -14.160745  -18.586019 H    2446 MOH     0.0372 ****
14981 HC3   -24.121694  -14.662074  -17.786988 H    2446 MOH     0.0372 ****
14982 O1    -25.568534  -14.110531  -16.448435 O    2446 MOH    -0.6497 ****
14983 HO1   -25.640703  -13.161762  -16.574300 H    2446 MOH     0.4215 ****
14984 HC1   -24.232545   -7.756963  -21.858509 H    2447 MOH     0.0372 ****
14985 C1    -24.544314   -8.175825  -20.901087 C    2447 MOH     0.1166 ****
14986 HC2   -25.071435   -7.429547  -20.308531 H    2447 MOH     0.0372 ****
14987 HC3   -23.651731   -8.509364  -20.372878 H    2447 MOH     0.0372 ****
14988 O1    -25.358956   -9.289935  -21.128068 O    2447 MOH    -0.6497 ****
14989 HO1   -26.044848   -9.048660  -21.753857 H    2447 MOH     0.4215 ****
14990 HC1   -27.482450  -10.018658  -16.982301 H    2448 MOH     0.0372 ****
14991 C1    -27.044818  -10.922112  -17.407272 C    2448 MOH     0.1166 ****
14992 HC2   -26.801177  -10.726969  -18.450962 H    2448 MOH     0.0372 ****
14993 HC3   -27.750341  -11.748406  -17.313934 H    2448 MOH     0.0372 ****
14994 O1    -25.908593  -11.219725  -16.659860 O    2448 MOH    -0.6497 ****
14995 HO1   -25.281013  -10.493859  -16.707943 H    2448 MOH     0.4215 ****
14996 HC1   -25.501561  -12.232589  -20.784414 H    2449 MOH     0.0372 ****
14997 C1    -24.576069  -11.932934  -20.290854 C    2449 MOH     0.1166 ****
14998 HC2   -24.132086  -12.786990  -19.778908 H    2449 MOH     0.0372 ****
14999 HC3   -24.822020  -11.180941  -19.541320 H    2449 MOH     0.0372 ****
15000 O1    -23.693877  -11.433647  -21.316865 O    2449 MOH    -0.6497 ****
15001 HO1   -23.884403  -10.495492  -21.391819 H    2449 MOH     0.4215 ****
15002 HC1   -15.659009   -2.990419  -21.496471 H    2450 MOH     0.0372 ****
15003 C1    -15.597810   -2.210665  -20.738452 C    2450 MOH     0.1166 ****
15004 HC2   -15.237544   -2.656472  -19.810728 H    2450 MOH     0.0372 ****
15005 HC3   -16.590853   -1.785270  -20.592788 H    2450 MOH     0.0372 ****
15006 O1    -14.726589   -1.188003  -21.166252 O    2450 MOH    -0.6497 ****
15007 HO1   -13.839779   -1.548078  -21.232720 H    2450 MOH     0.4215 ****
15008 HC1    -9.400532    1.758733  -27.277068 H    2451 MOH     0.0372 ****
15009 C1     -8.966942    1.951835  -26.296311 C    2451 MOH     0.1166 ****
15010 HC2    -8.681154    3.002666  -26.245400 H    2451 MOH     0.0372 ****
15011 HC3    -8.078978    1.332522  -26.169739 H    2451 MOH     0.0372 ****
15012 O1     -9.921302    1.637075  -25.288684 O    2451 MOH    -0.6497 ****
15013 HO1    -9.720384    0.745461  -24.995942 H    2451 MOH     0.4215 ****
15014 HC1    -5.330790    0.147377  -31.892354 H    2452 MOH     0.0372 ****
15015 C1     -5.525357    0.888756  -31.117365 C    2452 MOH     0.1166 ****
15016 HC2    -6.589414    0.930806  -30.884727 H    2452 MOH     0.0372 ****
15017 HC3    -5.223980    1.877125  -31.464555 H    2452 MOH     0.0372 ****
15018 O1     -4.855631    0.558483  -29.906091 O    2452 MOH    -0.6497 ****
15019 HO1    -5.073292   -0.335989  -29.633855 H    2452 MOH     0.4215 ****
15020 HC1   -21.217160    4.860196  -25.425156 H    2453 MOH     0.0372 ****
15021 C1    -20.613252    5.411739  -24.704614 C    2453 MOH     0.1166 ****
15022 HC2   -19.801497    4.776505  -24.351061 H    2453 MOH     0.0372 ****
15023 HC3   -21.261616    5.697513  -23.875885 H    2453 MOH     0.0372 ****
15024 O1    -20.108648    6.535647  -25.360102 O    2453 MOH    -0.6497 ****
15025 HO1   -19.295739    6.797334  -24.920989 H    2453 MOH     0.4215 ****
15026 HC1   -23.155325   -0.461321  -21.040387 H    2454 MOH     0.0372 ****
15027 C1    -24.175503   -0.754035  -20.792192 C    2454 MOH     0.1166 ****
15028 HC2   -24.336584   -0.696472  -19.716683 H    2454 MOH     0.0372 ****
15029 HC3   -24.383927   -1.776288  -21.108976 H    2454 MOH     0.0372 ****
15030 O1    -25.061736    0.138396  -21.393233 O    2454 MOH    -0.6497 ****
15031 HO1   -24.610248    0.514801  -22.152666 H    2454 MOH     0.4215 ****
15032 HC1   -10.447846    4.511552  -30.363590 H    2455 MOH     0.0372 ****
15033 C1    -10.399348    3.423978  -30.414501 C    2455 MOH     0.1166 ****
15034 HC2   -10.777513    3.069210  -31.372631 H    2455 MOH     0.0372 ****
15035 HC3   -11.006143    2.977355  -29.626784 H    2455 MOH     0.0372 ****
15036 O1     -9.062782    2.989602  -30.340962 O    2455 MOH    -0.6497 ****
15037 HO1    -9.095114    2.030219  -30.319749 H    2455 MOH     0.4215 ****
15038 HC1   -28.556437    2.325382  -24.836136 H    2456 MOH     0.0372 ****
15039 C1    -27.516052    2.352735  -25.162112 C    2456 MOH     0.1166 ****
15040 HC2   -26.931773    1.713010  -24.499553 H    2456 MOH     0.0372 ****
15041 HC3   -27.174838    3.386419  -25.108372 H    2456 MOH     0.0372 ****
15042 O1    -27.449079    1.870593  -26.485109 O    2456 MOH    -0.6497 ****
15043 HO1   -28.043750    1.117784  -26.528950 H    2456 MOH     0.4215 ****
15044 HC1    -5.651797    2.177188  -28.110747 H    2457 MOH     0.0372 ****
15045 C1     -5.569236    3.116976  -27.564861 C    2457 MOH     0.1166 ****
15046 HC2    -6.396001    3.772622  -27.837804 H    2457 MOH     0.0372 ****
15047 HC3    -4.611989    3.579113  -27.809520 H    2457 MOH     0.0372 ****
15048 O1     -5.610228    2.758942  -26.223479 O    2457 MOH    -0.6497 ****
15049 HO1    -5.386216    3.501954  -25.659208 H    2457 MOH     0.4215 ****
15050 HC1   -17.744398    6.801416  -28.367427 H    2458 MOH     0.0372 ****
15051 C1    -18.410083    7.660371  -28.282574 C    2458 MOH     0.1166 ****
15052 HC2   -19.452200    7.340304  -28.289645 H    2458 MOH     0.0372 ****
15053 HC3   -18.274983    8.284991  -29.165044 H    2458 MOH     0.0372 ****
15054 O1    -18.184339    8.457271  -27.079079 O    2458 MOH    -0.6497 ****
15055 HO1   -18.257085    7.890215  -26.309039 H    2458 MOH     0.4215 ****
15056 HC1   -17.669920   -3.852639  -19.417577 H    2459 MOH     0.0372 ****
15057 C1    -17.370275   -4.899796  -19.432426 C    2459 MOH     0.1166 ****
15058 HC2   -16.736345   -5.088407  -20.299339 H    2459 MOH     0.0372 ****
15059 HC3   -18.238033   -5.553810  -19.511622 H    2459 MOH     0.0372 ****
15060 O1    -16.665331   -5.210881  -18.238830 O    2459 MOH    -0.6497 ****
15061 HO1   -16.231163   -6.059221  -18.357624 H    2459 MOH     0.4215 ****
15062 HC1   -19.762815   13.969032  -22.510462 H    2460 MOH     0.0372 ****
15063 C1    -20.104606   13.299504  -23.299593 C    2460 MOH     0.1166 ****
15064 HC2   -20.602860   12.423404  -22.883814 H    2460 MOH     0.0372 ****
15065 HC3   -19.232230   12.981479  -23.870228 H    2460 MOH     0.0372 ****
15066 O1    -20.885761   14.029452  -24.221660 O    2460 MOH    -0.6497 ****
15067 HO1   -20.858626   13.542412  -25.048268 H    2460 MOH     0.4215 ****
15068 HC1   -16.996152   -2.736897  -26.841491 H    2461 MOH     0.0372 ****
15069 C1    -17.136449   -2.891215  -27.910636 C    2461 MOH     0.1166 ****
15070 HC2   -17.332748   -1.936730  -28.399954 H    2461 MOH     0.0372 ****
15071 HC3   -17.970720   -3.570131  -28.086706 H    2461 MOH     0.0372 ****
15072 O1    -15.960963   -3.445616  -28.462179 O    2461 MOH    -0.6497 ****
15073 HO1   -15.314331   -3.546453  -27.760022 H    2461 MOH     0.4215 ****
15074 HC1   -14.232954    5.299471  -25.551021 H    2462 MOH     0.0372 ****
15075 C1    -13.750289    4.333555  -25.698099 C    2462 MOH     0.1166 ****
15076 HC2   -14.523361    3.579521  -25.845884 H    2462 MOH     0.0372 ****
15077 HC3   -13.185641    4.091056  -24.798659 H    2462 MOH     0.0372 ****
15078 O1    -12.842117    4.361316  -26.820985 O    2462 MOH    -0.6497 ****
15079 HO1   -12.130822    4.965524  -26.591882 H    2462 MOH     0.4215 ****
15080 HC1   -10.534448   -8.825920  -26.596125 H    2463 MOH     0.0372 ****
15081 C1    -10.700725   -8.738963  -25.522029 C    2463 MOH     0.1166 ****
15082 HC2   -10.628556   -7.682825  -25.262521 H    2463 MOH     0.0372 ****
15083 HC3    -9.913797   -9.292956  -25.009377 H    2463 MOH     0.0372 ****
15084 O1    -12.026321   -9.257847  -25.287977 O    2463 MOH    -0.6497 ****
15085 HO1   -12.337513   -8.909203  -24.449348 H    2463 MOH     0.4215 ****
15086 HC1   -11.668364    8.571173  -17.415050 H    2464 MOH     0.0372 ****
15087 C1    -12.379660    7.745286  -17.425657 C    2464 MOH     0.1166 ****
15088 HC2   -12.017661    7.014114  -18.149027 H    2464 MOH     0.0372 ****
15089 HC3   -13.368661    8.117609  -17.695772 H    2464 MOH     0.0372 ****
15090 O1    -12.443168    7.171698  -16.140844 O    2464 MOH    -0.6497 ****
15091 HO1   -12.719142    7.855514  -15.526368 H    2464 MOH     0.4215 ****
15092 HC1   -27.160981   -0.255972  -23.397174 H    2465 MOH     0.0372 ****
15093 C1    -27.552425   -1.025112  -24.061854 C    2465 MOH     0.1166 ****
15094 HC2   -27.053017   -0.991227  -25.029883 H    2465 MOH     0.0372 ****
15095 HC3   -28.623987   -0.862629  -24.186305 H    2465 MOH     0.0372 ****
15096 O1    -27.411551   -2.291906  -23.477077 O    2465 MOH    -0.6497 ****
15097 HO1   -27.857843   -2.292314  -22.627842 H    2465 MOH     0.4215 ****
15098 HC1   -10.940903   -2.687907  -27.777700 H    2466 MOH     0.0372 ****
15099 C1    -10.957646   -3.695055  -28.195600 C    2466 MOH     0.1166 ****
15100 HC2   -10.455929   -4.353560  -27.487786 H    2466 MOH     0.0372 ****
15101 HC3   -10.406276   -3.723633  -29.136052 H    2466 MOH     0.0372 ****
15102 O1    -12.300563   -4.130656  -28.344800 O    2466 MOH    -0.6497 ****
15103 HO1   -12.792465   -3.869786  -27.562032 H    2466 MOH     0.4215 ****
15104 HC1   -16.806204    1.103087  -28.646027 H    2467 MOH     0.0372 ****
15105 C1    -17.869683    1.303945  -28.777549 C    2467 MOH     0.1166 ****
15106 HC2   -18.451652    0.382937  -28.750679 H    2467 MOH     0.0372 ****
15107 HC3   -18.034806    1.774655  -29.746993 H    2467 MOH     0.0372 ****
15108 O1    -18.320017    2.194334  -27.798206 O    2467 MOH    -0.6497 ****
15109 HO1   -18.209743    3.088806  -28.128425 H    2467 MOH     0.4215 ****
15110 HC1   -13.093265    4.030635  -31.442635 H    2468 MOH     0.0372 ****
15111 C1    -13.497410    4.376421  -32.393693 C    2468 MOH     0.1166 ****
15112 HC2   -14.430408    3.853047  -32.605825 H    2468 MOH     0.0372 ****
15113 HC3   -12.776299    4.231493  -33.197674 H    2468 MOH     0.0372 ****
15114 O1    -13.743938    5.742420  -32.239544 O    2468 MOH    -0.6497 ****
15115 HO1   -12.919482    6.198025  -32.051453 H    2468 MOH     0.4215 ****
15116 HC1   -16.141097   -3.650148  -24.819872 H    2469 MOH     0.0372 ****
15117 C1    -15.387077   -4.403774  -25.047561 C    2469 MOH     0.1166 ****
15118 HC2   -15.873206   -5.293348  -25.447076 H    2469 MOH     0.0372 ****
15119 HC3   -14.898062   -4.693223  -24.117715 H    2469 MOH     0.0372 ****
15120 O1    -14.452925   -3.861621  -25.992255 O    2469 MOH    -0.6497 ****
15121 HO1   -14.236418   -2.963883  -25.732747 H    2469 MOH     0.4215 ****
15122 HC1   -17.895664    4.702612  -33.906195 H    2470 MOH     0.0372 ****
15123 C1    -18.132955    4.416022  -32.880890 C    2470 MOH     0.1166 ****
15124 HC2   -17.370853    3.753435  -32.471475 H    2470 MOH     0.0372 ****
15125 HC3   -19.086160    3.887340  -32.899982 H    2470 MOH     0.0372 ****
15126 O1    -18.234569    5.542379  -32.042968 O    2470 MOH    -0.6497 ****
15127 HO1   -17.460919    6.098821  -32.162469 H    2470 MOH     0.4215 ****
15128 HC1   -20.798581   -5.874285  -25.331818 H    2471 MOH     0.0372 ****
15129 C1    -20.710247   -4.888365  -24.875734 C    2471 MOH     0.1166 ****
15130 HC2   -21.311268   -4.856522  -23.967809 H    2471 MOH     0.0372 ****
15131 HC3   -21.062430   -4.153110  -25.599104 H    2471 MOH     0.0372 ****
15132 O1    -19.370217   -4.684649  -24.568142 O    2471 MOH    -0.6497 ****
15133 HO1   -18.885243   -5.151277  -25.251915 H    2471 MOH     0.4215 ****
15134 HC1   -10.853723    5.917967  -33.109285 H    2472 MOH     0.0372 ****
15135 C1    -10.433412    6.801416  -32.628453 C    2472 MOH     0.1166 ****
15136 HC2   -10.179955    7.543203  -33.385764 H    2472 MOH     0.0372 ****
15137 HC3    -9.546602    6.518500  -32.062060 H    2472 MOH     0.0372 ****
15138 O1    -11.438579    7.297846  -31.805380 O    2472 MOH    -0.6497 ****
15139 HO1   -11.082354    7.494214  -30.936346 H    2472 MOH     0.4215 ****
15140 HC1   -16.502518    8.225795  -20.533391 H    2473 MOH     0.0372 ****
15141 C1    -16.545242    9.099854  -21.183222 C    2473 MOH     0.1166 ****
15142 HC2   -15.744457    9.800000  -20.944927 H    2473 MOH     0.0372 ****
15143 HC3   -17.484591    9.615880  -20.988061 H    2473 MOH     0.0372 ****
15144 O1    -16.544665    8.745495  -22.574808 O    2473 MOH    -0.6497 ****
15145 HO1   -16.435545    9.537905  -23.105846 H    2473 MOH     0.4215 ****
15146 HC1   -23.019648    0.941829  -27.648300 H    2474 MOH     0.0372 ****
15147 C1    -21.987923    0.658096  -27.854068 C    2474 MOH     0.1166 ****
15148 HC2   -21.717146   -0.167790  -27.197165 H    2474 MOH     0.0372 ****
15149 HC3   -21.339559    1.508885  -27.643350 H    2474 MOH     0.0372 ****
15150 O1    -21.849936    0.338846  -29.215955 O    2474 MOH    -0.6497 ****
15151 HO1   -22.146694    1.131664  -29.668504 H    2474 MOH     0.4215 ****
15152 HC1   -11.394123   -3.620346  -20.005182 H    2475 MOH     0.0372 ****
15153 C1    -11.319067   -2.578496  -20.314895 C    2475 MOH     0.1166 ****
15154 HC2   -10.280414   -2.353960  -20.558140 H    2475 MOH     0.0372 ****
15155 HC3   -11.681066   -1.977147  -19.479802 H    2475 MOH     0.0372 ****
15156 O1    -12.207032   -2.420913  -21.391112 O    2475 MOH    -0.6497 ****
15157 HO1   -11.839837   -2.941429  -22.108825 H    2475 MOH     0.4215 ****
15158 HC1   -21.669226   -7.532998  -19.456468 H    2476 MOH     0.0372 ****
15159 C1    -20.676760   -7.512177  -19.906895 C    2476 MOH     0.1166 ****
15160 HC2   -20.153681   -6.600967  -19.616981 H    2476 MOH     0.0372 ****
15161 HC3   -20.736805   -7.567699  -20.993011 H    2476 MOH     0.0372 ****
15162 O1    -19.941794   -8.576888  -19.458589 O    2476 MOH    -0.6497 ****
15163 HO1   -20.388663   -9.372973  -19.754159 H    2476 MOH     0.4215 ****
15164 HC1   -23.729211    4.696488  -26.451168 H    2477 MOH     0.0372 ****
15165 C1    -23.968812    4.063703  -25.596983 C    2477 MOH     0.1166 ****
15166 HC2   -25.014393    4.188219  -25.316262 H    2477 MOH     0.0372 ****
15167 HC3   -23.336613    4.371114  -24.763304 H    2477 MOH     0.0372 ****
15168 O1    -23.666857    2.713626  -25.913060 O    2477 MOH    -0.6497 ****
15169 HO1   -24.129315    2.440508  -26.708555 H    2477 MOH     0.4215 ****
15170 HC1    -7.894225   -2.144120  -33.570319 H    2478 MOH     0.0372 ****
15171 C1     -8.416727   -1.214947  -33.342630 C    2478 MOH     0.1166 ****
15172 HC2    -9.449030   -1.428053  -33.064030 H    2478 MOH     0.0372 ****
15173 HC3    -8.376313   -0.568690  -34.218736 H    2478 MOH     0.0372 ****
15174 O1     -7.729103   -0.651564  -32.276313 O    2478 MOH    -0.6497 ****
15175 HO1    -7.266646   -1.366815  -31.833665 H    2478 MOH     0.4215 ****
15176 HC1   -14.493916   -6.930015  -23.930332 H    2479 MOH     0.0372 ****
15177 C1    -14.242769   -7.450531  -23.006143 C    2479 MOH     0.1166 ****
15178 HC2   -14.909609   -8.304179  -22.885228 H    2479 MOH     0.0372 ****
15179 HC3   -14.365745   -6.780596  -22.155494 H    2479 MOH     0.0372 ****
15180 O1    -12.902739   -7.881233  -23.103017 O    2479 MOH    -0.6497 ****
15181 HO1   -12.712791   -8.436859  -22.344292 H    2479 MOH     0.4215 ****
15182 HC1   -22.967686   -0.701779  -24.709564 H    2480 MOH     0.0372 ****
15183 C1    -23.977472   -0.302512  -24.617640 C    2480 MOH     0.1166 ****
15184 HC2   -24.590041   -1.043891  -24.104280 H    2480 MOH     0.0372 ****
15185 HC3   -24.378730   -0.110635  -25.613246 H    2480 MOH     0.0372 ****
15186 O1    -23.909345    0.886307  -23.855379 O    2480 MOH    -0.6497 ****
15187 HO1   -23.575059    1.579512  -24.429550 H    2480 MOH     0.4215 ****
15188 HC1   -10.509622   -7.357859  -28.986145 H    2481 MOH     0.0372 ****
15189 C1     -9.638401   -6.854489  -29.405460 C    2481 MOH     0.1166 ****
15190 HC2    -9.936313   -5.905312  -29.848816 H    2481 MOH     0.0372 ****
15191 HC3    -9.199614   -7.466045  -30.194591 H    2481 MOH     0.0372 ****
15192 O1     -8.669607   -6.579330  -28.419753 O    2481 MOH    -0.6497 ****
15193 HO1    -8.239481   -7.417463  -28.236612 H    2481 MOH     0.4215 ****
15194 HC1   -20.537619    1.971839  -20.024981 H    2482 MOH     0.0372 ****
15195 C1    -19.929669    2.842633  -20.273176 C    2482 MOH     0.1166 ****
15196 HC2   -18.880046    2.573189  -20.387727 H    2482 MOH     0.0372 ****
15197 HC3   -19.986250    3.564824  -19.457882 H    2482 MOH     0.0372 ****
15198 O1    -20.324577    3.404791  -21.483036 O    2482 MOH    -0.6497 ****
15199 HO1   -20.042830    2.806299  -22.178829 H    2482 MOH     0.4215 ****
15200 HC1   -14.956951    8.221712  -30.712900 H    2483 MOH     0.0372 ****
15201 C1    -15.971933    7.838367  -30.816845 C    2483 MOH     0.1166 ****
15202 HC2   -16.693044    8.655680  -30.795632 H    2483 MOH     0.0372 ****
15203 HC3   -16.206915    7.143528  -30.010743 H    2483 MOH     0.0372 ****
15204 O1    -16.099527    7.126382  -31.999128 O    2483 MOH    -0.6497 ****
15205 HO1   -15.378994    6.493189  -32.030947 H    2483 MOH     0.4215 ****
15206 HC1   -12.082902   -0.060421  -23.453035 H    2484 MOH     0.0372 ****
15207 C1    -12.705285    0.834051  -23.462227 C    2484 MOH     0.1166 ****
15208 HC2   -12.261303    1.621154  -22.852701 H    2484 MOH     0.0372 ****
15209 HC3   -13.676966    0.556034  -23.052813 H    2484 MOH     0.0372 ****
15210 O1    -12.884841    1.286798  -24.783810 O    2484 MOH    -0.6497 ****
15211 HO1   -12.027476    1.562366  -25.116857 H    2484 MOH     0.4215 ****
15212 HC1   -20.342475    5.907353  -29.271110 H    2485 MOH     0.0372 ****
15213 C1    -20.161187    4.869177  -28.991803 C    2485 MOH     0.1166 ****
15214 HC2   -20.820521    4.231902  -29.580822 H    2485 MOH     0.0372 ****
15215 HC3   -20.385776    4.714451  -27.936092 H    2485 MOH     0.0372 ****
15216 O1    -18.830972    4.473585  -29.232926 O    2485 MOH    -0.6497 ****
15217 HO1   -18.651416    4.581770  -30.169842 H    2485 MOH     0.4215 ****
15218 HC1   -16.454021    0.119208  -25.612539 H    2486 MOH     0.0372 ****
15219 C1    -16.000223    0.998575  -25.155748 C    2486 MOH     0.1166 ****
15220 HC2   -15.163065    1.315376  -25.778002 H    2486 MOH     0.0372 ****
15221 HC3   -15.696537    0.749544  -24.138929 H    2486 MOH     0.0372 ****
15222 O1    -16.950542    1.996334  -25.191104 O    2486 MOH    -0.6497 ****
15223 HO1   -17.278477    2.051856  -26.091958 H    2486 MOH     0.4215 ****
15224 HC1    -9.091073    3.438267  -20.235699 H    2487 MOH     0.0372 ****
15225 C1     -9.343952    4.302937  -19.621930 C    2487 MOH     0.1166 ****
15226 HC2    -8.536239    4.486240  -18.914117 H    2487 MOH     0.0372 ****
15227 HC3   -10.261939    4.070235  -19.083115 H    2487 MOH     0.0372 ****
15228 O1     -9.536210    5.411331  -20.478237 O    2487 MOH    -0.6497 ****
15229 HO1   -10.221524    5.140254  -21.093420 H    2487 MOH     0.4215 ****
15230 HC1   -12.831725   -3.821204  -23.769819 H    2488 MOH     0.0372 ****
15231 C1    -12.009001   -4.511960  -23.955081 C    2488 MOH     0.1166 ****
15232 HC2   -11.733605   -4.390711  -25.002306 H    2488 MOH     0.0372 ****
15233 HC3   -12.317306   -5.551769  -23.848308 H    2488 MOH     0.0372 ****
15234 O1    -10.918964   -4.201283  -23.070490 O    2488 MOH    -0.6497 ****
15235 HO1   -10.308127   -4.941846  -23.057762 H    2488 MOH     0.4215 ****
15236 HC1    -7.997571   -2.863454  -24.834722 H    2489 MOH     0.0372 ****
15237 C1     -8.828956   -2.180046  -25.004427 C    2489 MOH     0.1166 ****
15238 HC2    -9.750984   -2.640142  -24.647338 H    2489 MOH     0.0372 ****
15239 HC3    -8.899392   -1.991844  -26.075694 H    2489 MOH     0.0372 ****
15240 O1     -8.501021   -0.959384  -24.352475 O    2489 MOH    -0.6497 ****
15241 HO1    -7.887875   -1.156568  -23.640418 H    2489 MOH     0.4215 ****
15242 HC1   -15.491000   -0.634010  -16.351562 H    2490 MOH     0.0372 ****
15243 C1    -16.382429   -0.007349  -16.383381 C    2490 MOH     0.1166 ****
15244 HC2   -17.270971   -0.638092  -16.423687 H    2490 MOH     0.0372 ****
15245 HC3   -16.373192    0.610739  -17.281407 H    2490 MOH     0.0372 ****
15246 O1    -16.372037    0.840175  -15.261910 O    2490 MOH    -0.6497 ****
15247 HO1   -15.616285    1.420296  -15.378583 H    2490 MOH     0.4215 ****
15248 HC1    -8.237749   -0.037151  -28.812197 H    2491 MOH     0.0372 ****
15249 C1     -9.247534   -0.358034  -29.068170 C    2491 MOH     0.1166 ****
15250 HC2    -9.944974    0.072668  -28.349042 H    2491 MOH     0.0372 ****
15251 HC3    -9.328941   -1.444383  -29.033522 H    2491 MOH     0.0372 ****
15252 O1     -9.602605    0.101245  -30.340255 O    2491 MOH    -0.6497 ****
15253 HO1    -9.003893   -0.306186  -30.969580 H    2491 MOH     0.4215 ****
15254 HC1   -19.591919   -1.466020  -21.315451 H    2492 MOH     0.0372 ****
15255 C1    -19.246664   -2.309052  -21.912956 C    2492 MOH     0.1166 ****
15256 HC2   -18.506501   -2.841000  -21.314037 H    2492 MOH     0.0372 ****
15257 HC3   -18.804991   -1.923258  -22.831488 H    2492 MOH     0.0372 ****
15258 O1    -20.299173   -3.226795  -22.246711 O    2492 MOH    -0.6497 ****
15259 HO1   -20.020313   -3.739963  -23.008265 H    2492 MOH     0.4215 ****
15260 HC1   -12.434508    7.071268  -27.537991 H    2493 MOH     0.0372 ****
15261 C1    -12.926988    7.507686  -28.407025 C    2493 MOH     0.1166 ****
15262 HC2   -13.869223    7.995134  -28.156709 H    2493 MOH     0.0372 ****
15263 HC3   -13.179290    6.673226  -29.061806 H    2493 MOH     0.0372 ****
15264 O1    -12.089252    8.432776  -29.107061 O    2493 MOH    -0.6497 ****
15265 HO1   -12.630230    9.132514  -29.478999 H    2493 MOH     0.4215 ****
15266 HC1    -6.093470   -4.328657  -29.877100 H    2494 MOH     0.0372 ****
15267 C1     -6.999332   -4.004099  -30.388338 C    2494 MOH     0.1166 ****
15268 HC2    -7.884988   -4.396834  -29.889121 H    2494 MOH     0.0372 ****
15269 HC3    -6.991827   -4.352335  -31.421421 H    2494 MOH     0.0372 ****
15270 O1     -7.092286   -2.611973  -30.374196 O    2494 MOH    -0.6497 ****
15271 HO1    -6.822086   -2.326607  -29.498091 H    2494 MOH     0.4215 ****
15272 HC1   -13.559186    0.235151  -27.892251 H    2495 MOH     0.0372 ****
15273 C1    -12.895811   -0.586653  -27.622844 C    2495 MOH     0.1166 ****
15274 HC2   -11.879674   -0.200450  -27.545062 H    2495 MOH     0.0372 ****
15275 HC3   -12.909667   -1.369265  -28.381569 H    2495 MOH     0.0372 ****
15276 O1    -13.273975   -1.013681  -26.335909 O    2495 MOH    -0.6497 ****
15277 HO1   -13.220282   -0.244541  -25.764567 H    2495 MOH     0.4215 ****
15278 HC1    -9.779274    6.434401  -23.788911 H    2496 MOH     0.0372 ****
15279 C1    -10.118756    5.688532  -24.508038 C    2496 MOH     0.1166 ****
15280 HC2   -10.625092    4.851214  -24.026499 H    2496 MOH     0.0372 ****
15281 HC3    -9.231946    5.291714  -25.003013 H    2496 MOH     0.0372 ****
15282 O1    -10.959955    6.309069  -25.462632 O    2496 MOH    -0.6497 ****
15283 HO1   -10.430525    6.994110  -25.878411 H    2496 MOH     0.4215 ****
15284 HC1   -16.410719    3.930614  -29.626077 H    2497 MOH     0.0372 ****
15285 C1    -15.754272    4.206182  -28.800884 C    2497 MOH     0.1166 ****
15286 HC2   -16.301023    4.170256  -27.857603 H    2497 MOH     0.0372 ****
15287 HC3   -15.407862    5.228844  -28.951497 H    2497 MOH     0.0372 ****
15288 O1    -14.635367    3.334164  -28.735830 O    2497 MOH    -0.6497 ****
15289 HO1   -14.030304    3.660762  -28.065493 H    2497 MOH     0.4215 ****
15290 HC1   -12.634271    8.645474  -21.858509 H    2498 MOH     0.0372 ****
15291 C1    -12.946040    8.226611  -20.901087 C    2498 MOH     0.1166 ****
15292 HC2   -13.473161    8.972889  -20.308531 H    2498 MOH     0.0372 ****
15293 HC3   -12.053457    7.893072  -20.372878 H    2498 MOH     0.0372 ****
15294 O1    -13.760682    7.112502  -21.128068 O    2498 MOH    -0.6497 ****
15295 HO1   -14.446574    7.353776  -21.753857 H    2498 MOH     0.4215 ****
15296 HC1   -17.796937    5.569731  -23.066248 H    2499 MOH     0.0372 ****
15297 C1    -17.214968    5.812231  -23.955788 C    2499 MOH     0.1166 ****
15298 HC2   -17.251341    4.990427  -24.670673 H    2499 MOH     0.0372 ****
15299 HC3   -16.187862    5.955526  -23.618498 H    2499 MOH     0.0372 ****
15300 O1    -17.680890    7.056572  -24.487532 O    2499 MOH    -0.6497 ****
15301 HO1   -17.265198    7.733855  -23.949424 H    2499 MOH     0.4215 ****
15302 HC1   -20.302637    1.003474  -25.394750 H    2500 MOH     0.0372 ****
15303 C1    -20.139825    0.779346  -24.340454 C    2500 MOH     0.1166 ****
15304 HC2   -19.572289   -0.147378  -24.248530 H    2500 MOH     0.0372 ****
15305 HC3   -21.123630    0.661770  -23.886492 H    2500 MOH     0.0372 ****
15306 O1    -19.447004    1.855897  -23.748606 O    2500 MOH    -0.6497 ****
15307 HO1   -18.608692    1.946528  -24.206811 H    2500 MOH     0.4215 ****
15308 HC1   -22.367242   -5.062687  -20.635215 H    2501 MOH     0.0372 ****
15309 C1    -22.760418   -4.627903  -19.716683 C    2501 MOH     0.1166 ****
15310 HC2   -22.944592   -3.563191  -19.858104 H    2501 MOH     0.0372 ****
15311 HC3   -22.061246   -4.772014  -18.892903 H    2501 MOH     0.0372 ****
15312 O1    -23.924933   -5.288857  -19.387878 O    2501 MOH    -0.6497 ****
15313 HO1   -24.349286   -4.839375  -18.653194 H    2501 MOH     0.4215 ****
15314 HC1    -6.493574   -5.434601  -25.440005 H    2502 MOH     0.0372 ****
15315 C1     -6.109636   -4.837742  -26.267320 C    2502 MOH     0.1166 ****
15316 HC2    -5.422012   -5.455014  -26.845733 H    2502 MOH     0.0372 ****
15317 HC3    -5.608496   -3.975930  -25.825378 H    2502 MOH     0.0372 ****
15318 O1     -7.174847   -4.398059  -27.054330 O    2502 MOH    -0.6497 ****
15319 HO1    -7.704277   -5.154135  -27.315959 H    2502 MOH     0.4215 ****
15320 HC1   -16.027359    3.561558  -20.839568 H    2503 MOH     0.0372 ****
15321 C1    -15.963850    2.638509  -21.415860 C    2503 MOH     0.1166 ****
15322 HC2   -14.932125    2.434384  -21.701532 H    2503 MOH     0.0372 ****
15323 HC3   -16.581038    2.750369  -22.306815 H    2503 MOH     0.0372 ****
15324 O1    -16.481733    1.585228  -20.650771 O    2503 MOH    -0.6497 ****
15325 HO1   -16.231741    0.760566  -21.075035 H    2503 MOH     0.4215 ****
15326 HC1    -6.601538    0.022045  -26.704312 H    2504 MOH     0.0372 ****
15327 C1     -5.961257   -0.853239  -26.595417 C    2504 MOH     0.1166 ****
15328 HC2    -6.111368   -1.254139  -25.592740 H    2504 MOH     0.0372 ****
15329 HC3    -4.922604   -0.540521  -26.701483 H    2504 MOH     0.0372 ****
15330 O1     -6.340576   -1.795068  -27.598802 O    2504 MOH    -0.6497 ****
15331 HO1    -6.411590   -2.668311  -27.206358 H    2504 MOH     0.4215 ****
15332 HC1    -8.465802    2.235567  -22.283480 H    2505 MOH     0.0372 ****
15333 C1     -7.607282    2.597275  -22.849166 C    2505 MOH     0.1166 ****
15334 HC2    -7.955425    3.116567  -23.741535 H    2505 MOH     0.0372 ****
15335 HC3    -6.977971    1.756692  -23.142615 H    2505 MOH     0.0372 ****
15336 O1     -6.857882    3.486849  -22.053671 O    2505 MOH    -0.6497 ****
15337 HO1    -6.690450    3.068394  -21.205850 H    2505 MOH     0.4215 ****
15338 HC1    -7.666749    3.556659  -32.215502 H    2506 MOH     0.0372 ****
15339 C1     -8.113618    3.970623  -33.119185 C    2506 MOH     0.1166 ****
15340 HC2    -9.141302    4.289465  -32.947358 H    2506 MOH     0.0372 ****
15341 HC3    -8.083019    3.198217  -33.888517 H    2506 MOH     0.0372 ****
15342 O1     -7.303019    5.034926  -33.507386 O    2506 MOH    -0.6497 ****
15343 HO1    -7.121153    5.581162  -32.739468 H    2506 MOH     0.4215 ****
15344 HC1   -22.718848    8.497688  -27.569104 H    2507 MOH     0.0372 ****
15345 C1    -23.089507    8.100871  -26.624409 C    2507 MOH     0.1166 ****
15346 HC2   -22.235029    7.977988  -25.959022 H    2507 MOH     0.0372 ****
15347 HC3   -23.561202    7.125157  -26.740375 H    2507 MOH     0.0372 ****
15348 O1    -23.944563    9.036167  -26.062259 O    2507 MOH    -0.6497 ****
15349 HO1   -23.759811    9.037800  -25.120393 H    2507 MOH     0.4215 ****
15350 HC1   -22.834896   -4.556868  -15.417474 H    2508 MOH     0.0372 ****
15351 C1    -21.940580   -4.999409  -14.977653 C    2508 MOH     0.1166 ****
15352 HC2   -21.874762   -4.726291  -13.924771 H    2508 MOH     0.0372 ****
15353 HC3   -21.050306   -4.629536  -15.486770 H    2508 MOH     0.0372 ****
15354 O1    -21.991964   -6.411948  -15.093619 O    2508 MOH    -0.6497 ****
15355 HO1   -21.086679   -6.720175  -15.005230 H    2508 MOH     0.4215 ****
15356 HC1   -23.430721    3.822837  -21.830932 H    2509 MOH     0.0372 ****
15357 C1    -23.497117    3.562374  -20.774515 C    2509 MOH     0.1166 ****
15358 HC2   -23.389152    2.484191  -20.650771 H    2509 MOH     0.0372 ****
15359 HC3   -24.480921    3.877134  -20.425911 H    2509 MOH     0.0372 ****
15360 O1    -22.513312    4.281300  -20.051144 O    2509 MOH    -0.6497 ****
15361 HO1   -21.690588    4.172297  -20.534098 H    2509 MOH     0.4215 ****
15362 HC1   -15.884176    6.383778  -16.982301 H    2510 MOH     0.0372 ****
15363 C1    -15.446544    5.480325  -17.407272 C    2510 MOH     0.1166 ****
15364 HC2   -15.202903    5.675468  -18.450962 H    2510 MOH     0.0372 ****
15365 HC3   -16.152066    4.654030  -17.313934 H    2510 MOH     0.0372 ****
15366 O1    -14.310319    5.182712  -16.659860 O    2510 MOH    -0.6497 ****
15367 HO1   -13.682739    5.908577  -16.707943 H    2510 MOH     0.4215 ****
15368 HC1   -19.104058   -0.814047  -17.615161 H    2511 MOH     0.0372 ****
15369 C1    -19.514554   -1.770573  -17.292014 C    2511 MOH     0.1166 ****
15370 HC2   -18.735709   -2.533181  -17.270800 H    2511 MOH     0.0372 ****
15371 HC3   -20.299751   -2.049407  -17.994171 H    2511 MOH     0.0372 ****
15372 O1    -20.110380   -1.626053  -16.036192 O    2511 MOH    -0.6497 ****
15373 HO1   -19.489728   -1.176980  -15.457779 H    2511 MOH     0.4215 ****
15374 HC1   -13.903287    4.169848  -20.784414 H    2512 MOH     0.0372 ****
15375 C1    -12.977795    4.469502  -20.290854 C    2512 MOH     0.1166 ****
15376 HC2   -12.533812    3.615447  -19.778908 H    2512 MOH     0.0372 ****
15377 HC3   -13.223746    5.221496  -19.541320 H    2512 MOH     0.0372 ****
15378 O1    -12.095603    4.968790  -21.316865 O    2512 MOH    -0.6497 ****
15379 HO1   -12.286129    5.906944  -21.391819 H    2512 MOH     0.4215 ****
15380 HC1   -25.003423   -4.062071  -21.582031 H    2513 MOH     0.0372 ****
15381 C1    -24.520181   -4.212714  -22.547231 C    2513 MOH     0.1166 ****
15382 HC2   -24.064652   -5.202308  -22.567030 H    2513 MOH     0.0372 ****
15383 HC3   -23.759811   -3.443574  -22.685824 H    2513 MOH     0.0372 ****
15384 O1    -25.551329   -4.163316  -23.533645 O    2513 MOH    -0.6497 ****
15385 HO1   -26.064016   -3.362333  -23.403538 H    2513 MOH     0.4215 ****
15386 HC1   -15.486381    8.038817  -25.436470 H    2514 MOH     0.0372 ****
15387 C1    -14.540682    8.381745  -25.016448 C    2514 MOH     0.1166 ****
15388 HC2   -14.654420    9.356234  -24.540565 H    2514 MOH     0.0372 ****
15389 HC3   -13.810911    8.495239  -25.818307 H    2514 MOH     0.0372 ****
15390 O1    -14.099009    7.459513  -24.044176 O    2514 MOH    -0.6497 ****
15391 HO1   -13.267624    7.071268  -24.326312 H    2514 MOH     0.4215 ****
15392 HC1   -15.568365   -0.026945  -30.365711 H    2515 MOH     0.0372 ****
15393 C1    -14.786633    0.646257  -30.717143 C    2515 MOH     0.1166 ****
15394 HC2   -14.227181    0.211472  -31.545165 H    2515 MOH     0.0372 ****
15395 HC3   -14.101318    0.851197  -29.895485 H    2515 MOH     0.0372 ****
15396 O1    -15.360519    1.845690  -31.162620 O    2515 MOH    -0.6497 ****
15397 HO1   -15.165375    2.489090  -30.476727 H    2515 MOH     0.4215 ****
15398 HC1   -16.170080   12.172984  -26.002862 H    2516 MOH     0.0372 ****
15399 C1    -16.970865   11.779024  -25.377073 C    2516 MOH     0.1166 ****
15400 HC2   -17.536668   11.048668  -25.956193 H    2516 MOH     0.0372 ****
15401 HC3   -17.643478   12.555921  -25.015741 H    2516 MOH     0.0372 ****
15402 O1    -16.473766   11.038054  -24.332676 O    2516 MOH    -0.6497 ****
15403 HO1   -15.929325   11.634096  -23.813660 H    2516 MOH     0.4215 ****
15404 HC1    -4.060735   13.412018  -21.496471 H    2517 MOH     0.0372 ****
15405 C1     -3.999536   14.191772  -20.738452 C    2517 MOH     0.1166 ****
15406 HC2    -3.639269   13.745965  -19.810728 H    2517 MOH     0.0372 ****
15407 HC3    -4.992579   14.617167  -20.592788 H    2517 MOH     0.0372 ****
15408 O1     -3.128314   15.214434  -21.166252 O    2517 MOH    -0.6497 ****
15409 HO1    -2.241504   14.854359  -21.232720 H    2517 MOH     0.4215 ****
15410 HC1     2.197742   18.161170  -27.277068 H    2518 MOH     0.0372 ****
15411 C1      2.631332   18.354271  -26.296311 C    2518 MOH     0.1166 ****
15412 HC2     2.917120   19.405103  -26.245400 H    2518 MOH     0.0372 ****
15413 HC3     3.519297   17.734959  -26.169739 H    2518 MOH     0.0372 ****
15414 O1      1.676972   18.039512  -25.288684 O    2518 MOH    -0.6497 ****
15415 HO1     1.877890   17.147898  -24.995942 H    2518 MOH     0.4215 ****
15416 HC1    -4.439477    7.307481  -34.909579 H    2519 MOH     0.0372 ****
15417 C1     -4.626538    6.321561  -34.484608 C    2519 MOH     0.1166 ****
15418 HC2    -5.018559    6.416275  -33.472031 H    2519 MOH     0.0372 ****
15419 HC3    -3.669292    5.805127  -34.416018 H    2519 MOH     0.0372 ****
15420 O1     -5.467738    5.517720  -35.333843 O    2519 MOH    -0.6497 ****
15421 HO1    -6.183652    5.171526  -34.796442 H    2519 MOH     0.4215 ****
15422 HC1    -1.809069    7.779416  -28.272675 H    2520 MOH     0.0372 ****
15423 C1     -2.657774    8.214200  -27.744466 C    2520 MOH     0.1166 ****
15424 HC2    -2.794029    9.241353  -28.082463 H    2520 MOH     0.0372 ****
15425 HC3    -2.493229    8.201953  -26.666835 H    2520 MOH     0.0372 ****
15426 O1     -3.823444    7.516096  -28.078220 O    2520 MOH    -0.6497 ****
15427 HO1    -3.796309    6.715521  -27.548597 H    2520 MOH     0.4215 ****
15428 HC1    -9.618886   21.262632  -25.425156 H    2521 MOH     0.0372 ****
15429 C1     -9.014978   21.814176  -24.704614 C    2521 MOH     0.1166 ****
15430 HC2    -8.203223   21.178941  -24.351061 H    2521 MOH     0.0372 ****
15431 HC3    -9.663342   22.099949  -23.875885 H    2521 MOH     0.0372 ****
15432 O1     -8.510374   22.938083  -25.360102 O    2521 MOH    -0.6497 ****
15433 HO1    -7.697464   23.199770  -24.920989 H    2521 MOH     0.4215 ****
15434 HC1   -11.557051   15.941116  -21.040387 H    2522 MOH     0.0372 ****
15435 C1    -12.577229   15.648402  -20.792192 C    2522 MOH     0.1166 ****
15436 HC2   -12.738310   15.705965  -19.716683 H    2522 MOH     0.0372 ****
15437 HC3   -12.785652   14.626148  -21.108976 H    2522 MOH     0.0372 ****
15438 O1    -13.463462   16.540833  -21.393233 O    2522 MOH    -0.6497 ****
15439 HO1   -13.011974   16.917237  -22.152666 H    2522 MOH     0.4215 ****
15440 HC1   -16.958163   18.727819  -24.836136 H    2523 MOH     0.0372 ****
15441 C1    -15.917778   18.755171  -25.162112 C    2523 MOH     0.1166 ****
15442 HC2   -15.333499   18.115446  -24.499553 H    2523 MOH     0.0372 ****
15443 HC3   -15.576564   19.788856  -25.108372 H    2523 MOH     0.0372 ****
15444 O1    -15.850805   18.273030  -26.485109 O    2523 MOH    -0.6497 ****
15445 HO1   -16.445476   17.520220  -26.528950 H    2523 MOH     0.4215 ****
15446 HC1   -14.077762   14.045619  -28.996045 H    2524 MOH     0.0372 ****
15447 C1    -13.163239   14.351805  -29.503748 C    2524 MOH     0.1166 ****
15448 HC2   -12.567991   15.006227  -28.866645 H    2524 MOH     0.0372 ****
15449 HC3   -13.438636   14.898041  -30.406016 H    2524 MOH     0.0372 ****
15450 O1    -12.461182   13.212384  -29.901849 O    2524 MOH    -0.6497 ****
15451 HO1   -11.526451   13.411201  -29.812046 H    2524 MOH     0.4215 ****
15452 HC1    -0.811408    9.865156  -32.429756 H    2525 MOH     0.0372 ****
15453 C1     -0.764065   10.588572  -31.615169 C    2525 MOH     0.1166 ****
15454 HC2    -1.557344   11.316071  -31.786288 H    2525 MOH     0.0372 ****
15455 HC3     0.196646   11.102149  -31.661838 H    2525 MOH     0.0372 ****
15456 O1     -0.949394    9.946806  -30.321163 O    2525 MOH    -0.6497 ****
15457 HO1    -1.141075   10.622457  -29.665675 H    2525 MOH     0.4215 ****
15458 HC1    -6.071646   12.549797  -19.417577 H    2526 MOH     0.0372 ****
15459 C1     -5.772001   11.502640  -19.432426 C    2526 MOH     0.1166 ****
15460 HC2    -5.138071   11.314030  -20.299339 H    2526 MOH     0.0372 ****
15461 HC3    -6.639759   10.848627  -19.511622 H    2526 MOH     0.0372 ****
15462 O1     -5.067057   11.191555  -18.238830 O    2526 MOH    -0.6497 ****
15463 HO1    -4.632889   10.343215  -18.357624 H    2526 MOH     0.4215 ****
15464 HC1     0.734159    7.202153  -31.825179 H    2527 MOH     0.0372 ****
15465 C1      0.054040    6.633463  -31.190904 C    2527 MOH     0.1166 ****
15466 HC2     0.408533    6.670614  -30.160650 H    2527 MOH     0.0372 ****
15467 HC3    -0.000808    5.596921  -31.522538 H    2527 MOH     0.0372 ****
15468 O1     -1.178603    7.256450  -31.272929 O    2527 MOH    -0.6497 ****
15469 HO1    -1.076412    8.149289  -30.937053 H    2527 MOH     0.4215 ****
15470 HC1    -8.164541   30.371468  -22.510462 H    2528 MOH     0.0372 ****
15471 C1     -8.506332   29.701941  -23.299593 C    2528 MOH     0.1166 ****
15472 HC2    -9.004586   28.825840  -22.883814 H    2528 MOH     0.0372 ****
15473 HC3    -7.633956   29.383915  -23.870228 H    2528 MOH     0.0372 ****
15474 O1     -9.287487   30.431889  -24.221660 O    2528 MOH    -0.6497 ****
15475 HO1    -9.260352   29.944849  -25.048268 H    2528 MOH     0.4215 ****
15476 HC1    -5.397878   13.665540  -26.841491 H    2529 MOH     0.0372 ****
15477 C1     -5.538174   13.511222  -27.910636 C    2529 MOH     0.1166 ****
15478 HC2    -5.734474   14.465706  -28.399954 H    2529 MOH     0.0372 ****
15479 HC3    -6.372446   12.832305  -28.086706 H    2529 MOH     0.0372 ****
15480 O1     -4.362689   12.956821  -28.462179 O    2529 MOH    -0.6497 ****
15481 HO1    -3.716057   12.855983  -27.760022 H    2529 MOH     0.4215 ****
15482 HC1    -2.634680   21.701907  -25.551021 H    2530 MOH     0.0372 ****
15483 C1     -2.152015   20.735992  -25.698099 C    2530 MOH     0.1166 ****
15484 HC2    -2.925087   19.981957  -25.845884 H    2530 MOH     0.0372 ****
15485 HC3    -1.587367   20.493492  -24.798659 H    2530 MOH     0.0372 ****
15486 O1     -1.243843   20.763753  -26.820985 O    2530 MOH    -0.6497 ****
15487 HO1    -0.532548   21.367960  -26.591882 H    2530 MOH     0.4215 ****
15488 HC1    -7.941684   13.459374  -34.210251 H    2531 MOH     0.0372 ****
15489 C1     -8.102764   12.446510  -33.841848 C    2531 MOH     0.1166 ****
15490 HC2    -8.853897   12.491418  -33.054131 H    2531 MOH     0.0372 ****
15491 HC3    -7.177849   12.046019  -33.426776 H    2531 MOH     0.0372 ****
15492 O1     -8.554252   11.599803  -34.898265 O    2531 MOH    -0.6497 ****
15493 HO1    -8.149530   10.741665  -34.748359 H    2531 MOH     0.4215 ****
15494 HC1     1.063826    7.576517  -26.596125 H    2532 MOH     0.0372 ****
15495 C1      0.897549    7.663473  -25.522029 C    2532 MOH     0.1166 ****
15496 HC2     0.969718    8.719612  -25.262521 H    2532 MOH     0.0372 ****
15497 HC3     1.684477    7.109481  -25.009377 H    2532 MOH     0.0372 ****
15498 O1     -0.428047    7.144590  -25.287977 O    2532 MOH    -0.6497 ****
15499 HO1    -0.739239    7.493234  -24.449348 H    2532 MOH     0.4215 ****
15500 HC1    -0.070090   24.973609  -17.415050 H    2533 MOH     0.0372 ****
15501 C1     -0.781386   24.147723  -17.425657 C    2533 MOH     0.1166 ****
15502 HC2    -0.419387   23.416550  -18.149027 H    2533 MOH     0.0372 ****
15503 HC3    -1.770387   24.520045  -17.695772 H    2533 MOH     0.0372 ****
15504 O1     -0.844894   23.574134  -16.140844 O    2533 MOH    -0.6497 ****
15505 HO1    -1.120868   24.257950  -15.526368 H    2533 MOH     0.4215 ****
15506 HC1   -15.562707   16.146465  -23.397174 H    2534 MOH     0.0372 ****
15507 C1    -15.954151   15.377325  -24.061854 C    2534 MOH     0.1166 ****
15508 HC2   -15.454743   15.411209  -25.029883 H    2534 MOH     0.0372 ****
15509 HC3   -17.025713   15.539808  -24.186305 H    2534 MOH     0.0372 ****
15510 O1    -15.813277   14.110530  -23.477077 O    2534 MOH    -0.6497 ****
15511 HO1   -16.259569   14.110122  -22.627842 H    2534 MOH     0.4215 ****
15512 HC1     0.657371   13.714530  -27.777700 H    2535 MOH     0.0372 ****
15513 C1      0.640628   12.707381  -28.195600 C    2535 MOH     0.1166 ****
15514 HC2     1.142346   12.048877  -27.487786 H    2535 MOH     0.0372 ****
15515 HC3     1.191998   12.678804  -29.136052 H    2535 MOH     0.0372 ****
15516 O1     -0.702289   12.271780  -28.344800 O    2535 MOH    -0.6497 ****
15517 HO1    -1.194191   12.532651  -27.562032 H    2535 MOH     0.4215 ****
15518 HC1    -5.207930   17.505523  -28.646027 H    2536 MOH     0.0372 ****
15519 C1     -6.271409   17.706381  -28.777549 C    2536 MOH     0.1166 ****
15520 HC2    -6.853378   16.785373  -28.750679 H    2536 MOH     0.0372 ****
15521 HC3    -6.436531   18.177092  -29.746993 H    2536 MOH     0.0372 ****
15522 O1     -6.721743   18.596771  -27.798206 O    2536 MOH    -0.6497 ****
15523 HO1    -6.611469   19.491243  -28.128425 H    2536 MOH     0.4215 ****
15524 HC1    -5.727545    9.177258  -26.239036 H    2537 MOH     0.0372 ****
15525 C1     -5.913452    9.763094  -27.139183 C    2537 MOH     0.1166 ****
15526 HC2    -5.895554    9.139291  -28.032966 H    2537 MOH     0.0372 ****
15527 HC3    -5.165784   10.548564  -27.248077 H    2537 MOH     0.0372 ****
15528 O1     -7.155910   10.351380  -27.009782 O    2537 MOH    -0.6497 ****
15529 HO1    -7.454400   10.462015  -27.915586 H    2537 MOH     0.4215 ****
15530 HC1    -4.542823   12.752288  -24.819872 H    2538 MOH     0.0372 ****
15531 C1     -3.788803   11.998662  -25.047561 C    2538 MOH     0.1166 ****
15532 HC2    -4.274932   11.109089  -25.447076 H    2538 MOH     0.0372 ****
15533 HC3    -3.299788   11.709214  -24.117715 H    2538 MOH     0.0372 ****
15534 O1     -2.854650   12.540816  -25.992255 O    2538 MOH    -0.6497 ****
15535 HO1    -2.638144   13.438554  -25.732747 H    2538 MOH     0.4215 ****
15536 HC1    -8.606214    6.122744  -27.554254 H    2539 MOH     0.0372 ****
15537 C1     -9.013246    7.123361  -27.699211 C    2539 MOH     0.1166 ****
15538 HC2   -10.058827    7.077637  -28.004681 H    2539 MOH     0.0372 ****
15539 HC3    -8.456680    7.581007  -28.515920 H    2539 MOH     0.0372 ****
15540 O1     -8.858516    7.947206  -26.542385 O    2539 MOH    -0.6497 ****
15541 HO1    -8.575614    8.827389  -26.802600 H    2539 MOH     0.4215 ****
15542 HC1    -9.200307   10.528152  -25.331818 H    2540 MOH     0.0372 ****
15543 C1     -9.111973   11.514071  -24.875734 C    2540 MOH     0.1166 ****
15544 HC2    -9.712994   11.545915  -23.967809 H    2540 MOH     0.0372 ****
15545 HC3    -9.464156   12.249326  -25.599104 H    2540 MOH     0.0372 ****
15546 O1     -7.771943   11.717787  -24.568142 O    2540 MOH    -0.6497 ****
15547 HO1    -7.286968   11.251159  -25.251915 H    2540 MOH     0.4215 ****
15548 HC1    -4.904244   24.628231  -20.533391 H    2541 MOH     0.0372 ****
15549 C1     -4.946968   25.502291  -21.183222 C    2541 MOH     0.1166 ****
15550 HC2    -4.146183   26.202437  -20.944927 H    2541 MOH     0.0372 ****
15551 HC3    -5.886317   26.018317  -20.988061 H    2541 MOH     0.0372 ****
15552 O1     -4.946390   25.147931  -22.574808 O    2541 MOH    -0.6497 ****
15553 HO1    -4.837271   25.940341  -23.105846 H    2541 MOH     0.4215 ****
15554 HC1    -7.236739    5.690818  -24.517938 H    2542 MOH     0.0372 ****
15555 C1     -6.160558    5.698983  -24.687643 C    2542 MOH     0.1166 ****
15556 HC2    -5.740247    6.559162  -24.167920 H    2542 MOH     0.0372 ****
15557 HC3    -5.956753    5.759403  -25.756789 H    2542 MOH     0.0372 ****
15558 O1     -5.567042    4.554254  -24.187012 O    2542 MOH    -0.6497 ****
15559 HO1    -6.028922    4.292976  -23.387981 H    2542 MOH     0.4215 ****
15560 HC1   -11.421374   17.344265  -27.648300 H    2543 MOH     0.0372 ****
15561 C1    -10.389649   17.060533  -27.854068 C    2543 MOH     0.1166 ****
15562 HC2   -10.118872   16.234646  -27.197165 H    2543 MOH     0.0372 ****
15563 HC3    -9.741284   17.911322  -27.643350 H    2543 MOH     0.0372 ****
15564 O1    -10.251662   16.741282  -29.215955 O    2543 MOH    -0.6497 ****
15565 HO1   -10.548420   17.534101  -29.668504 H    2543 MOH     0.4215 ****
15566 HC1     0.204151   12.782091  -20.005182 H    2544 MOH     0.0372 ****
15567 C1      0.279207   13.823940  -20.314895 C    2544 MOH     0.1166 ****
15568 HC2     1.317860   14.048477  -20.558140 H    2544 MOH     0.0372 ****
15569 HC3    -0.082792   14.425290  -19.479802 H    2544 MOH     0.0372 ****
15570 O1     -0.608758   13.981524  -21.391112 O    2544 MOH    -0.6497 ****
15571 HO1    -0.241563   13.461007  -22.108825 H    2544 MOH     0.4215 ****
15572 HC1   -10.070952    8.869439  -19.456468 H    2545 MOH     0.0372 ****
15573 C1     -9.078486    8.890260  -19.906895 C    2545 MOH     0.1166 ****
15574 HC2    -8.555407    9.801470  -19.616981 H    2545 MOH     0.0372 ****
15575 HC3    -9.138531    8.834738  -20.993011 H    2545 MOH     0.0372 ****
15576 O1     -8.343519    7.825548  -19.458589 O    2545 MOH    -0.6497 ****
15577 HO1    -8.790389    7.029464  -19.754159 H    2545 MOH     0.4215 ****
15578 HC1   -12.130937   21.098925  -26.451168 H    2546 MOH     0.0372 ****
15579 C1    -12.370538   20.466140  -25.596983 C    2546 MOH     0.1166 ****
15580 HC2   -13.416119   20.590656  -25.316262 H    2546 MOH     0.0372 ****
15581 HC3   -11.738339   20.773551  -24.763304 H    2546 MOH     0.0372 ****
15582 O1    -12.068583   19.116063  -25.913060 O    2546 MOH    -0.6497 ****
15583 HO1   -12.531041   18.842945  -26.708555 H    2546 MOH     0.4215 ****
15584 HC1    -2.895642    9.472422  -23.930332 H    2547 MOH     0.0372 ****
15585 C1     -2.644495    8.951905  -23.006143 C    2547 MOH     0.1166 ****
15586 HC2    -3.311335    8.098258  -22.885228 H    2547 MOH     0.0372 ****
15587 HC3    -2.767471    9.621841  -22.155494 H    2547 MOH     0.0372 ****
15588 O1     -1.304465    8.521203  -23.103017 O    2547 MOH    -0.6497 ****
15589 HO1    -1.114517    7.965577  -22.344292 H    2547 MOH     0.4215 ****
15590 HC1   -11.369412   15.700658  -24.709564 H    2548 MOH     0.0372 ****
15591 C1    -12.379198   16.099924  -24.617640 C    2548 MOH     0.1166 ****
15592 HC2   -12.991766   15.358545  -24.104280 H    2548 MOH     0.0372 ****
15593 HC3   -12.780456   16.291801  -25.613246 H    2548 MOH     0.0372 ****
15594 O1    -12.311071   17.288743  -23.855379 O    2548 MOH    -0.6497 ****
15595 HO1   -11.976785   17.981949  -24.429550 H    2548 MOH     0.4215 ****
15596 HC1     1.088652    9.044577  -28.986145 H    2549 MOH     0.0372 ****
15597 C1      1.959874    9.547948  -29.405460 C    2549 MOH     0.1166 ****
15598 HC2     1.661961   10.497125  -29.848816 H    2549 MOH     0.0372 ****
15599 HC3     2.398660    8.936392  -30.194591 H    2549 MOH     0.0372 ****
15600 O1      2.928667    9.823107  -28.419753 O    2549 MOH    -0.6497 ****
15601 HO1     3.358793    8.984973  -28.236612 H    2549 MOH     0.4215 ****
15602 HC1    -8.939345   18.374276  -20.024981 H    2550 MOH     0.0372 ****
15603 C1     -8.331395   19.245069  -20.273176 C    2550 MOH     0.1166 ****
15604 HC2    -7.281772   18.975625  -20.387727 H    2550 MOH     0.0372 ****
15605 HC3    -8.387975   19.967260  -19.457882 H    2550 MOH     0.0372 ****
15606 O1     -8.726303   19.807227  -21.483036 O    2550 MOH    -0.6497 ****
15607 HO1    -8.444556   19.208735  -22.178829 H    2550 MOH     0.4215 ****
15608 HC1    -9.879848   10.630214  -29.823360 H    2551 MOH     0.0372 ****
15609 C1     -9.023061   10.372201  -30.447028 C    2551 MOH     0.1166 ****
15610 HC2    -8.837154   11.165427  -31.170398 H    2551 MOH     0.0372 ****
15611 HC3    -9.269012    9.468339  -31.004228 H    2551 MOH     0.0372 ****
15612 O1     -7.859700   10.181549  -29.645876 O    2551 MOH    -0.6497 ****
15613 HO1    -7.163415    9.833721  -30.207319 H    2551 MOH     0.4215 ****
15614 HC1    -3.825176   10.290143  -30.640068 H    2552 MOH     0.0372 ****
15615 C1     -4.323429    9.514471  -31.219896 C    2552 MOH     0.1166 ****
15616 HC2    -3.596545    8.769010  -31.542337 H    2552 MOH     0.0372 ****
15617 HC3    -4.785887    9.988447  -32.086102 H    2552 MOH     0.0372 ****
15618 O1     -5.298574    8.883728  -30.422987 O    2552 MOH    -0.6497 ****
15619 HO1    -4.826879    8.514671  -29.673453 H    2552 MOH     0.4215 ****
15620 HC1    -0.484628   16.342016  -23.453035 H    2553 MOH     0.0372 ****
15621 C1     -1.107011   17.236488  -23.462227 C    2553 MOH     0.1166 ****
15622 HC2    -0.663029   18.023590  -22.852701 H    2553 MOH     0.0372 ****
15623 HC3    -2.078692   16.958471  -23.052813 H    2553 MOH     0.0372 ****
15624 O1     -1.286567   17.689235  -24.783810 O    2553 MOH    -0.6497 ****
15625 HO1    -0.429202   17.964803  -25.116857 H    2553 MOH     0.4215 ****
15626 HC1    -4.855746   16.521645  -25.612539 H    2554 MOH     0.0372 ****
15627 C1     -4.401949   17.401012  -25.155748 C    2554 MOH     0.1166 ****
15628 HC2    -3.564791   17.717812  -25.778002 H    2554 MOH     0.0372 ****
15629 HC3    -4.098263   17.151980  -24.138929 H    2554 MOH     0.0372 ****
15630 O1     -5.352268   18.398770  -25.191104 O    2554 MOH    -0.6497 ****
15631 HO1    -5.680203   18.454292  -26.091958 H    2554 MOH     0.4215 ****
15632 HC1     2.507201   19.840703  -20.235699 H    2555 MOH     0.0372 ****
15633 C1      2.254322   20.705373  -19.621930 C    2555 MOH     0.1166 ****
15634 HC2     3.062035   20.888677  -18.914117 H    2555 MOH     0.0372 ****
15635 HC3     1.336335   20.472672  -19.083115 H    2555 MOH     0.0372 ****
15636 O1      2.062064   21.813767  -20.478237 O    2555 MOH    -0.6497 ****
15637 HO1     1.376750   21.542691  -21.093420 H    2555 MOH     0.4215 ****
15638 HC1    -1.233451   12.581232  -23.769819 H    2556 MOH     0.0372 ****
15639 C1     -0.410727   11.890476  -23.955081 C    2556 MOH     0.1166 ****
15640 HC2    -0.135331   12.011726  -25.002306 H    2556 MOH     0.0372 ****
15641 HC3    -0.719032   10.850668  -23.848308 H    2556 MOH     0.0372 ****
15642 O1      0.679311   12.201153  -23.070490 O    2556 MOH    -0.6497 ****
15643 HO1     1.290147   11.460591  -23.057762 H    2556 MOH     0.4215 ****
15644 HC1     3.600703   13.538983  -24.834722 H    2557 MOH     0.0372 ****
15645 C1      2.769319   14.222390  -25.004427 C    2557 MOH     0.1166 ****
15646 HC2     1.847290   13.762295  -24.647338 H    2557 MOH     0.0372 ****
15647 HC3     2.698882   14.410593  -26.075694 H    2557 MOH     0.0372 ****
15648 O1      3.097253   15.443053  -24.352475 O    2557 MOH    -0.6497 ****
15649 HO1     3.710399   15.245869  -23.640418 H    2557 MOH     0.4215 ****
15650 HC1    -3.892726   15.768427  -16.351562 H    2558 MOH     0.0372 ****
15651 C1     -4.784155   16.395088  -16.383381 C    2558 MOH     0.1166 ****
15652 HC2    -5.672697   15.764344  -16.423687 H    2558 MOH     0.0372 ****
15653 HC3    -4.774918   17.013176  -17.281407 H    2558 MOH     0.0372 ****
15654 O1     -4.773763   17.242611  -15.261910 O    2558 MOH    -0.6497 ****
15655 HO1    -4.018011   17.822732  -15.378583 H    2558 MOH     0.4215 ****
15656 HC1    -2.235731   17.030322  -17.765068 H    2559 MOH     0.0372 ****
15657 C1     -2.011142   18.096259  -17.714863 C    2559 MOH     0.1166 ****
15658 HC2    -2.370254   18.644128  -18.586019 H    2559 MOH     0.0372 ****
15659 HC3    -0.925146   18.142799  -17.786988 H    2559 MOH     0.0372 ****
15660 O1     -2.371986   18.694342  -16.448435 O    2559 MOH    -0.6497 ****
15661 HO1    -2.444154   19.643111  -16.574300 H    2559 MOH     0.4215 ****
15662 HC1    -3.149099    3.579358  -26.397428 H    2560 MOH     0.0372 ****
15663 C1     -2.567707    4.336658  -25.870633 C    2560 MOH     0.1166 ****
15664 HC2    -1.514043    4.092526  -26.007812 H    2560 MOH     0.0372 ****
15665 HC3    -2.797493    4.347273  -24.805730 H    2560 MOH     0.0372 ****
15666 O1     -2.695879    5.596921  -26.422883 O    2560 MOH    -0.6497 ****
15667 HO1    -1.897404    6.073346  -26.181760 H    2560 MOH     0.4215 ****
15668 HC1    -7.993645   14.936417  -21.315451 H    2561 MOH     0.0372 ****
15669 C1     -7.648390   14.093384  -21.912956 C    2561 MOH     0.1166 ****
15670 HC2    -6.908227   13.561437  -21.314037 H    2561 MOH     0.0372 ****
15671 HC3    -7.206717   14.479179  -22.831488 H    2561 MOH     0.0372 ****
15672 O1     -8.700899   13.175642  -22.246711 O    2561 MOH    -0.6497 ****
15673 HO1    -8.422039   12.662474  -23.008265 H    2561 MOH     0.4215 ****
15674 HC1    -2.928551    3.256841  -31.060090 H    2562 MOH     0.0372 ****
15675 C1     -2.961460    4.341965  -31.159085 C    2562 MOH     0.1166 ****
15676 HC2    -2.516323    4.811043  -30.281565 H    2562 MOH     0.0372 ****
15677 HC3    -3.998959    4.667747  -31.234038 H    2562 MOH     0.0372 ****
15678 O1     -2.275568    4.719187  -32.324397 O    2562 MOH    -0.6497 ****
15679 HO1    -2.173954    5.672446  -32.284092 H    2562 MOH     0.4215 ****
15680 HC1    -1.960912   16.637587  -27.892251 H    2563 MOH     0.0372 ****
15681 C1     -1.297537   15.815784  -27.622844 C    2563 MOH     0.1166 ****
15682 HC2    -0.281400   16.201986  -27.545062 H    2563 MOH     0.0372 ****
15683 HC3    -1.311393   15.033172  -28.381569 H    2563 MOH     0.0372 ****
15684 O1     -1.675701   15.388756  -26.335909 O    2563 MOH    -0.6497 ****
15685 HO1    -1.622008   16.157896  -25.764567 H    2563 MOH     0.4215 ****
15686 HC1    -7.474607   15.600637  -32.769874 H    2564 MOH     0.0372 ****
15687 C1     -8.105074   15.287102  -31.938316 C    2564 MOH     0.1166 ****
15688 HC2    -9.081373   14.974384  -32.308840 H    2564 MOH     0.0372 ****
15689 HC3    -8.275392   16.114213  -31.248180 H    2564 MOH     0.0372 ****
15690 O1     -7.502897   14.233005  -31.242523 O    2564 MOH    -0.6497 ****
15691 HO1    -8.153571   13.878645  -30.632997 H    2564 MOH     0.4215 ****
15692 HC1    -1.035997   25.047910  -21.858509 H    2565 MOH     0.0372 ****
15693 C1     -1.347766   24.629048  -20.901087 C    2565 MOH     0.1166 ****
15694 HC2    -1.874887   25.375326  -20.308531 H    2565 MOH     0.0372 ****
15695 HC3    -0.455183   24.295509  -20.372878 H    2565 MOH     0.0372 ****
15696 O1     -2.162407   23.514938  -21.128068 O    2565 MOH    -0.6497 ****
15697 HO1    -2.848300   23.756213  -21.753857 H    2565 MOH     0.4215 ****
15698 HC1   -15.474373   10.265240  -29.573044 H    2566 MOH     0.0372 ****
15699 C1    -14.830627   11.049485  -29.969731 C    2566 MOH     0.1166 ****
15700 HC2   -14.796563   11.850876  -29.232219 H    2566 MOH     0.0372 ****
15701 HC3   -15.229576   11.489576  -30.884727 H    2566 MOH     0.0372 ****
15702 O1    -13.518887   10.584898  -30.200248 O    2566 MOH    -0.6497 ****
15703 HO1   -13.076637   11.372001  -30.525517 H    2566 MOH     0.4215 ****
15704 HC1    -6.198663   21.972168  -23.066248 H    2567 MOH     0.0372 ****
15705 C1     -5.616694   22.214667  -23.955788 C    2567 MOH     0.1166 ****
15706 HC2    -5.653067   21.392863  -24.670673 H    2567 MOH     0.0372 ****
15707 HC3    -4.589588   22.357962  -23.618498 H    2567 MOH     0.0372 ****
15708 O1     -6.082616   23.459008  -24.487532 O    2567 MOH    -0.6497 ****
15709 HO1    -5.666924   24.136292  -23.949424 H    2567 MOH     0.4215 ****
15710 HC1    -8.704363   17.405911  -25.394750 H    2568 MOH     0.0372 ****
15711 C1     -8.541551   17.181782  -24.340454 C    2568 MOH     0.1166 ****
15712 HC2    -7.974015   16.255059  -24.248530 H    2568 MOH     0.0372 ****
15713 HC3    -9.525355   17.064207  -23.886492 H    2568 MOH     0.0372 ****
15714 O1     -7.848730   18.258333  -23.748606 O    2568 MOH    -0.6497 ****
15715 HO1    -7.010418   18.348964  -24.206811 H    2568 MOH     0.4215 ****
15716 HC1   -10.768968   11.339749  -20.635215 H    2569 MOH     0.0372 ****
15717 C1    -11.162144   11.774534  -19.716683 C    2569 MOH     0.1166 ****
15718 HC2   -11.346318   12.839245  -19.858104 H    2569 MOH     0.0372 ****
15719 HC3   -10.462972   11.630422  -18.892903 H    2569 MOH     0.0372 ****
15720 O1    -12.326659   11.113580  -19.387878 O    2569 MOH    -0.6497 ****
15721 HO1   -12.751011   11.563061  -18.653194 H    2569 MOH     0.4215 ****
15722 HC1    -6.795066    8.026406  -35.772956 H    2570 MOH     0.0372 ****
15723 C1     -7.531765    8.372192  -35.048172 C    2570 MOH     0.1166 ****
15724 HC2    -7.802542    7.564269  -34.367228 H    2570 MOH     0.0372 ****
15725 HC3    -8.440514    8.671847  -35.568603 H    2570 MOH     0.0372 ****
15726 O1     -7.091824    9.453642  -34.254091 O    2570 MOH    -0.6497 ****
15727 HO1    -6.144392    9.385056  -34.118327 H    2570 MOH     0.4215 ****
15728 HC1    -7.957849    5.775733  -30.010743 H    2571 MOH     0.0372 ****
15729 C1     -6.922660    6.079878  -30.167014 C    2571 MOH     0.1166 ****
15730 HC2    -6.333763    5.177241  -30.334598 H    2571 MOH     0.0372 ****
15731 HC3    -6.549692    6.636729  -29.308586 H    2571 MOH     0.0372 ****
15732 O1     -6.924970    6.811459  -31.343640 O    2571 MOH    -0.6497 ****
15733 HO1    -6.287575    7.520586  -31.234038 H    2571 MOH     0.4215 ****
15734 HC1     5.104700   10.967835  -25.440005 H    2572 MOH     0.0372 ****
15735 C1      5.488638   11.564694  -26.267320 C    2572 MOH     0.1166 ****
15736 HC2     6.176262   10.947423  -26.845733 H    2572 MOH     0.0372 ****
15737 HC3     5.989778   12.426506  -25.825378 H    2572 MOH     0.0372 ****
15738 O1      4.423427   12.004378  -27.054330 O    2572 MOH    -0.6497 ****
15739 HO1     3.893997   11.248302  -27.315959 H    2572 MOH     0.4215 ****
15740 HC1    -4.429085   19.963994  -20.839568 H    2573 MOH     0.0372 ****
15741 C1     -4.365576   19.040945  -21.415860 C    2573 MOH     0.1166 ****
15742 HC2    -3.333851   18.836821  -21.701532 H    2573 MOH     0.0372 ****
15743 HC3    -4.982764   19.152805  -22.306815 H    2573 MOH     0.0372 ****
15744 O1     -4.883459   17.987664  -20.650771 O    2573 MOH    -0.6497 ****
15745 HO1    -4.633467   17.163003  -21.075035 H    2573 MOH     0.4215 ****
15746 HC1     4.996736   16.424482  -26.704312 H    2574 MOH     0.0372 ****
15747 C1      5.637017   15.549197  -26.595417 C    2574 MOH     0.1166 ****
15748 HC2     5.486906   15.148298  -25.592740 H    2574 MOH     0.0372 ****
15749 HC3     6.675670   15.861916  -26.701483 H    2574 MOH     0.0372 ****
15750 O1      5.257698   14.607369  -27.598802 O    2574 MOH    -0.6497 ****
15751 HO1     5.186684   13.734126  -27.206358 H    2574 MOH     0.4215 ****
15752 HC1   -14.002129   18.822532  -29.645876 H    2575 MOH     0.0372 ****
15753 C1    -13.734816   17.817833  -29.317072 C    2575 MOH     0.1166 ****
15754 HC2   -12.790271   17.528385  -29.777398 H    2575 MOH     0.0372 ****
15755 HC3   -14.497496   17.104215  -29.626784 H    2575 MOH     0.0372 ****
15756 O1    -13.567385   17.825590  -27.888009 O    2575 MOH    -0.6497 ****
15757 HO1   -14.395882   18.013384  -27.441117 H    2575 MOH     0.4215 ****
15758 HC1     3.132472   18.638004  -22.283480 H    2576 MOH     0.0372 ****
15759 C1      3.990992   18.999712  -22.849166 C    2576 MOH     0.1166 ****
15760 HC2     3.642849   19.519004  -23.741535 H    2576 MOH     0.0372 ****
15761 HC3     4.620303   18.159129  -23.142615 H    2576 MOH     0.0372 ****
15762 O1      4.740392   19.889285  -22.053671 O    2576 MOH    -0.6497 ****
15763 HO1     4.907824   19.470831  -21.205850 H    2576 MOH     0.4215 ****
15764 HC1   -11.120574   24.900124  -27.569104 H    2577 MOH     0.0372 ****
15765 C1    -11.491233   24.503307  -26.624409 C    2577 MOH     0.1166 ****
15766 HC2   -10.636755   24.380424  -25.959022 H    2577 MOH     0.0372 ****
15767 HC3   -11.962928   23.527594  -26.740375 H    2577 MOH     0.0372 ****
15768 O1    -12.346289   25.438604  -26.062259 O    2577 MOH    -0.6497 ****
15769 HO1   -12.161537   25.440237  -25.120393 H    2577 MOH     0.4215 ****
15770 HC1   -11.236622   11.845569  -15.417474 H    2578 MOH     0.0372 ****
15771 C1    -10.342306   11.403028  -14.977653 C    2578 MOH     0.1166 ****
15772 HC2   -10.276488   11.676146  -13.924771 H    2578 MOH     0.0372 ****
15773 HC3    -9.452032   11.772901  -15.486770 H    2578 MOH     0.0372 ****
15774 O1    -10.393690    9.990489  -15.093619 O    2578 MOH    -0.6497 ****
15775 HO1    -9.488405    9.682261  -15.005230 H    2578 MOH     0.4215 ****
15776 HC1   -11.832447   20.225273  -21.830932 H    2579 MOH     0.0372 ****
15777 C1    -11.898842   19.964811  -20.774515 C    2579 MOH     0.1166 ****
15778 HC2   -11.790878   18.886627  -20.650771 H    2579 MOH     0.0372 ****
15779 HC3   -12.882647   20.279570  -20.425911 H    2579 MOH     0.0372 ****
15780 O1    -10.915038   20.683736  -20.051144 O    2579 MOH    -0.6497 ****
15781 HO1   -10.092313   20.574734  -20.534098 H    2579 MOH     0.4215 ****
15782 HC1    -4.285902   22.786215  -16.982301 H    2580 MOH     0.0372 ****
15783 C1     -3.848270   21.882761  -17.407272 C    2580 MOH     0.1166 ****
15784 HC2    -3.604628   22.077904  -18.450962 H    2580 MOH     0.0372 ****
15785 HC3    -4.553792   21.056467  -17.313934 H    2580 MOH     0.0372 ****
15786 O1     -2.712045   21.585148  -16.659860 O    2580 MOH    -0.6497 ****
15787 HO1    -2.084465   22.311014  -16.707943 H    2580 MOH     0.4215 ****
15788 HC1    -7.505784   15.588389  -17.615161 H    2581 MOH     0.0372 ****
15789 C1     -7.916280   14.631864  -17.292014 C    2581 MOH     0.1166 ****
15790 HC2    -7.137435   13.869256  -17.270800 H    2581 MOH     0.0372 ****
15791 HC3    -8.701477   14.353030  -17.994171 H    2581 MOH     0.0372 ****
15792 O1     -8.512106   14.776383  -16.036192 O    2581 MOH    -0.6497 ****
15793 HO1    -7.891454   15.225457  -15.457779 H    2581 MOH     0.4215 ****
15794 HC1   -10.731440   10.695942  -33.348287 H    2582 MOH     0.0372 ****
15795 C1    -11.613631   11.279328  -33.087365 C    2582 MOH     0.1166 ****
15796 HC2   -11.309368   12.277904  -32.776238 H    2582 MOH     0.0372 ****
15797 HC3   -12.148835   10.789431  -32.274192 H    2582 MOH     0.0372 ****
15798 O1    -12.434623   11.334442  -34.254798 O    2582 MOH    -0.6497 ****
15799 HO1   -12.525267   10.445685  -34.607645 H    2582 MOH     0.4215 ****
15800 HC1    -3.194710    1.703457  -27.897201 H    2583 MOH     0.0372 ****
15801 C1     -2.356974    1.931667  -28.556932 C    2583 MOH     0.1166 ****
15802 HC2    -1.999595    2.933100  -28.321465 H    2583 MOH     0.0372 ****
15803 HC3    -2.707426    1.886760  -29.587893 H    2583 MOH     0.0372 ****
15804 O1     -1.276175    0.989839  -28.352578 O    2583 MOH    -0.6497 ****
15805 HO1    -0.443058    1.378083  -28.630471 H    2583 MOH     0.4215 ****
15806 HC1    -9.001121   12.558779  -28.281867 H    2584 MOH     0.0372 ****
15807 C1     -9.312891   13.602261  -28.317223 C    2584 MOH     0.1166 ****
15808 HC2    -8.506910   14.259541  -27.989125 H    2584 MOH     0.0372 ****
15809 HC3   -10.155822   13.725552  -27.638400 H    2584 MOH     0.0372 ****
15810 O1     -9.766110   13.948456  -29.611228 O    2584 MOH    -0.6497 ****
15811 HO1    -9.977421   14.884161  -29.581530 H    2584 MOH     0.4215 ****
15812 HC1    -2.305013   20.572284  -20.784414 H    2585 MOH     0.0372 ****
15813 C1     -1.379521   20.871939  -20.290854 C    2585 MOH     0.1166 ****
15814 HC2    -0.935538   20.017883  -19.778908 H    2585 MOH     0.0372 ****
15815 HC3    -1.625472   21.623932  -19.541320 H    2585 MOH     0.0372 ****
15816 O1     -0.497329   21.371226  -21.316865 O    2585 MOH    -0.6497 ****
15817 HO1    -0.687855   22.309381  -21.391819 H    2585 MOH     0.4215 ****
15818 HC1   -13.275823   11.729626  -27.465159 H    2586 MOH     0.0372 ****
15819 C1    -12.504483   11.436504  -26.752395 C    2586 MOH     0.1166 ****
15820 HC2   -11.606703   11.180124  -27.315252 H    2586 MOH     0.0372 ****
15821 HC3   -12.834727   10.548156  -26.213580 H    2586 MOH     0.0372 ****
15822 O1    -12.244098   12.513871  -25.843763 O    2586 MOH    -0.6497 ****
15823 HO1   -12.910360   12.488968  -25.152920 H    2586 MOH     0.4215 ****
15824 HC1   -13.405149   12.340366  -21.582031 H    2587 MOH     0.0372 ****
15825 C1    -12.921907   12.189722  -22.547231 C    2587 MOH     0.1166 ****
15826 HC2   -12.466378   11.200128  -22.567030 H    2587 MOH     0.0372 ****
15827 HC3   -12.161537   12.958862  -22.685824 H    2587 MOH     0.0372 ****
15828 O1    -13.953055   12.239120  -23.533645 O    2587 MOH    -0.6497 ****
15829 HO1   -14.465742   13.040103  -23.403538 H    2587 MOH     0.4215 ****
15830 HC1   -17.705254   13.768010  -27.915586 H    2588 MOH     0.0372 ****
15831 C1    -17.117511   14.683711  -27.854068 C    2588 MOH     0.1166 ****
15832 HC2   -16.651590   14.894367  -28.817147 H    2588 MOH     0.0372 ****
15833 HC3   -16.328851   14.535109  -27.117262 H    2588 MOH     0.0372 ****
15834 O1    -17.899244   15.808435  -27.478594 O    2588 MOH    -0.6497 ****
15835 HO1   -18.299347   15.644319  -26.621581 H    2588 MOH     0.4215 ****
15836 HC1     1.527323   25.271875  -19.456468 H    2589 MOH     0.0372 ****
15837 C1      2.519788   25.292696  -19.906895 C    2589 MOH     0.1166 ****
15838 HC2     3.042867   26.203906  -19.616981 H    2589 MOH     0.0372 ****
15839 HC3     2.459743   25.237174  -20.993011 H    2589 MOH     0.0372 ****
15840 O1      3.254755   24.227985  -19.458589 O    2589 MOH    -0.6497 ****
15841 HO1     2.807885   23.431900  -19.754159 H    2589 MOH     0.4215 ****
15842 HC1     0.829306   27.742186  -20.635215 H    2590 MOH     0.0372 ****
15843 C1      0.436131   28.176970  -19.716683 C    2590 MOH     0.1166 ****
15844 HC2     0.251956   29.241682  -19.858104 H    2590 MOH     0.0372 ****
15845 HC3     1.135302   28.032859  -18.892903 H    2590 MOH     0.0372 ****
15846 O1     -0.728385   27.516016  -19.387878 O    2590 MOH    -0.6497 ****
15847 HO1    -1.152737   27.965498  -18.653194 H    2590 MOH     0.4215 ****
15848 HC1     0.361652   28.248006  -15.417474 H    2591 MOH     0.0372 ****
15849 C1      1.255968   27.805464  -14.977653 C    2591 MOH     0.1166 ****
15850 HC2     1.321786   28.078582  -13.924771 H    2591 MOH     0.0372 ****
15851 HC3     2.146242   28.175337  -15.486770 H    2591 MOH     0.0372 ****
15852 O1      1.204584   26.392925  -15.093619 O    2591 MOH    -0.6497 ****
15853 HO1     2.109869   26.084698  -15.005230 H    2591 MOH     0.4215 ****
15854 HC1     4.092490   31.990826  -17.615161 H    2592 MOH     0.0372 ****
15855 C1      3.681994   31.034300  -17.292014 C    2592 MOH     0.1166 ****
15856 HC2     4.460839   30.271692  -17.270800 H    2592 MOH     0.0372 ****
15857 HC3     2.896797   30.755466  -17.994171 H    2592 MOH     0.0372 ****
15858 O1      3.086168   31.178820  -16.036192 O    2592 MOH    -0.6497 ****
15859 HO1     3.706820   31.627893  -15.457779 H    2592 MOH     0.4215 ****
15860 HC1    -0.070090    0.369954  -31.619977 H    2593 MOH     0.0372 ****
15861 C1     -0.781386   -0.455932  -31.630583 C    2593 MOH     0.1166 ****
15862 HC2    -0.419387   -1.187105  -32.353954 H    2593 MOH     0.0372 ****
15863 HC3    -1.770387   -0.083609  -31.900698 H    2593 MOH     0.0372 ****
15864 O1     -0.844894   -1.029521  -30.345770 O    2593 MOH    -0.6497 ****
15865 HO1    -1.120868   -0.345705  -29.731295 H    2593 MOH     0.4215 ****
15866 HC1    -4.904244    0.024576  -34.738318 H    2594 MOH     0.0372 ****
15867 C1     -4.946968    0.898636  -35.388149 C    2594 MOH     0.1166 ****
15868 HC2    -4.146183    1.598782  -35.149854 H    2594 MOH     0.0372 ****
15869 HC3    -5.886317    1.414662  -35.192987 H    2594 MOH     0.0372 ****
15870 O1     -4.946390    0.544276  -36.779735 O    2594 MOH    -0.6497 ****
15871 HO1    -4.837271    1.336686  -37.310772 H    2594 MOH     0.4215 ****
15872 HC1     2.507202   -4.762951  -34.440626 H    2595 MOH     0.0372 ****
15873 C1      2.254322   -3.898282  -33.826857 C    2595 MOH     0.1166 ****
15874 HC2     3.062035   -3.714978  -33.119043 H    2595 MOH     0.0372 ****
15875 HC3     1.336335   -4.130983  -33.288042 H    2595 MOH     0.0372 ****
15876 O1      2.062065   -2.789887  -34.683163 O    2595 MOH    -0.6497 ****
15877 HO1     1.376750   -3.060964  -35.298346 H    2595 MOH     0.4215 ****
15878 HC1    -3.892726   -8.835228  -30.556488 H    2596 MOH     0.0372 ****
15879 C1     -4.784155   -8.208567  -30.588308 C    2596 MOH     0.1166 ****
15880 HC2    -5.672697   -8.839311  -30.628613 H    2596 MOH     0.0372 ****
15881 HC3    -4.774917   -7.590479  -31.486334 H    2596 MOH     0.0372 ****
15882 O1     -4.773763   -7.361043  -29.466837 O    2596 MOH    -0.6497 ****
15883 HO1    -4.018011   -6.780923  -29.583509 H    2596 MOH     0.4215 ****
15884 HC1    -2.235731   -7.573333  -31.969995 H    2597 MOH     0.0372 ****
15885 C1     -2.011142   -6.507396  -31.919790 C    2597 MOH     0.1166 ****
15886 HC2    -2.370253   -5.959527  -32.790946 H    2597 MOH     0.0372 ****
15887 HC3    -0.925146   -6.460856  -31.991915 H    2597 MOH     0.0372 ****
15888 O1     -2.371986   -5.909313  -30.653362 O    2597 MOH    -0.6497 ****
15889 HO1    -2.444154   -4.960544  -30.779227 H    2597 MOH     0.4215 ****
15890 HC1    -1.035997    0.444256  -36.063436 H    2598 MOH     0.0372 ****
15891 C1     -1.347766    0.025393  -35.106013 C    2598 MOH     0.1166 ****
15892 HC2    -1.874887    0.771671  -34.513458 H    2598 MOH     0.0372 ****
15893 HC3    -0.455183   -0.308146  -34.577804 H    2598 MOH     0.0372 ****
15894 O1     -2.162407   -1.088717  -35.332994 O    2598 MOH    -0.6497 ****
15895 HO1    -2.848299   -0.847442  -35.958784 H    2598 MOH     0.4215 ****
15896 HC1    -4.285902   -1.817440  -31.187227 H    2599 MOH     0.0372 ****
15897 C1     -3.848270   -2.720893  -31.612199 C    2599 MOH     0.1166 ****
15898 HC2    -3.604628   -2.525751  -32.655888 H    2599 MOH     0.0372 ****
15899 HC3    -4.553792   -3.547188  -31.518861 H    2599 MOH     0.0372 ****
15900 O1     -2.712045   -3.018506  -30.864787 O    2599 MOH    -0.6497 ****
15901 HO1    -2.084465   -2.292641  -30.912870 H    2599 MOH     0.4215 ****
15902 HC1    -2.305013   -4.031370  -34.989341 H    2600 MOH     0.0372 ****
15903 C1     -1.379520   -3.731716  -34.495780 C    2600 MOH     0.1166 ****
15904 HC2    -0.935538   -4.585772  -33.983835 H    2600 MOH     0.0372 ****
15905 HC3    -1.625472   -2.979723  -33.746247 H    2600 MOH     0.0372 ****
15906 O1     -0.497329   -3.232429  -35.521792 O    2600 MOH    -0.6497 ****
15907 HO1    -0.687855   -2.294274  -35.596745 H    2600 MOH     0.4215 ****
15908 HC1     1.527323    0.668221  -33.661394 H    2601 MOH     0.0372 ****
15909 C1      2.519788    0.689041  -34.111821 C    2601 MOH     0.1166 ****
15910 HC2     3.042867    1.600251  -33.821907 H    2601 MOH     0.0372 ****
15911 HC3     2.459743    0.633519  -35.197937 H    2601 MOH     0.0372 ****
15912 O1      3.254755   -0.375670  -33.663515 O    2601 MOH    -0.6497 ****
15913 HO1     2.807886   -1.171754  -33.959086 H    2601 MOH     0.4215 ****
15914 HC1     0.829306    3.138531  -34.840141 H    2602 MOH     0.0372 ****
15915 C1      0.436131    3.573315  -33.921609 C    2602 MOH     0.1166 ****
15916 HC2     0.251956    4.638027  -34.063031 H    2602 MOH     0.0372 ****
15917 HC3     1.135302    3.429204  -33.097830 H    2602 MOH     0.0372 ****
15918 O1     -0.728385    2.912361  -33.592805 O    2602 MOH    -0.6497 ****
15919 HO1    -1.152737    3.361843  -32.858121 H    2602 MOH     0.4215 ****
15920 HC1     0.361652    3.644351  -29.622400 H    2603 MOH     0.0372 ****
15921 C1      1.255968    3.201809  -29.182580 C    2603 MOH     0.1166 ****
15922 HC2     1.321786    3.474928  -28.129698 H    2603 MOH     0.0372 ****
15923 HC3     2.146242    3.571682  -29.691697 H    2603 MOH     0.0372 ****
15924 O1      1.204584    1.789270  -29.298545 O    2603 MOH    -0.6497 ****
15925 HO1     2.109869    1.481043  -29.210157 H    2603 MOH     0.4215 ****
15926 HC1     4.092490    7.387171  -31.820088 H    2604 MOH     0.0372 ****
15927 C1      3.681994    6.430645  -31.496940 C    2604 MOH     0.1166 ****
15928 HC2     4.460839    5.668037  -31.475727 H    2604 MOH     0.0372 ****
15929 HC3     2.896798    6.151812  -32.199097 H    2604 MOH     0.0372 ****
15930 O1      3.086168    6.575165  -30.241119 O    2604 MOH    -0.6497 ****
15931 HO1     3.706820    7.024238  -29.662705 H    2604 MOH     0.4215 ****
@<TRIPOS>BOND
    1   354   353 1
    2   355   353 1
    3   356   353 1
    4   357   356 1
    5   358   357 1
    6   359   358 1
    7   360   359 1
    8   361   360 1
    9   362   361 1
   10   362   358 1
   11   363   362 1
   12   364   360 1
   13   365   360 1
   14   366   359 1
   15   367   359 1
   16   368   358 1
   17   369   357 1
   18   370   356 1
   19   309   308 1
   20   310   308 1
   21   311   310 1
   22   312   310 1
   23   313   312 1
   24   314   313 1
   25   315   314 1
   26   316   315 1
   27   317   316 1
   28   318   317 1
   29   319   318 1
   30   320   318 1
   31   321   320 1
   32   322   321 1
   33   323   321 1
   34   324   321 1
   35   325   317 1
   36   326   317 1
   37   327   316 1
   38   328   316 1
   39   329   314 1
   40   330   314 1
   41   331   313 1
   42   332   313 1
   43   333   312 1
   44   334   312 1
   45   335   334 1
   46   336   334 1
   47   337   336 1
   48   338   336 1
   49   339   338 1
   50   340   338 1
   51   341   338 1
   52   342   341 1
   53   343   341 1
   54   344   341 1
   55   345   344 1
   56   346   345 1
   57   347   345 1
   58   348   347 1
   59   349   347 1
   60   350   347 1
   61   350   353 1
   62   351   350 1
   63   352   350 1
   64   261   260 1
   65   262   260 1
   66   263   262 1
   67   264   262 1
   68   265   264 1
   69   266   265 1
   70   267   266 1
   71   268   267 1
   72   269   268 1
   73   270   269 1
   74   271   270 1
   75   272   270 1
   76   273   272 1
   77   274   273 1
   78   275   273 1
   79   276   273 1
   80   277   269 1
   81   278   269 1
   82   279   268 1
   83   280   268 1
   84   281   266 1
   85   282   266 1
   86   283   265 1
   87   284   265 1
   88   285   264 1
   89   286   264 1
   90   287   286 1
   91   288   286 1
   92   289   288 1
   93   290   288 1
   94   291   290 1
   95   292   290 1
   96   293   290 1
   97   294   293 1
   98   295   293 1
   99   296   293 1
  100   297   296 1
  101   298   297 1
  102   299   297 1
  103   300   299 1
  104   301   299 1
  105   302   299 1
  106   303   302 1
  107   304   302 1
  108   305   302 1
  109   305   308 1
  110   306   305 1
  111   307   305 1
  112   210   209 1
  113   211   209 1
  114   212   211 1
  115   213   211 1
  116   214   213 1
  117   215   214 1
  118   216   215 1
  119   217   216 1
  120   218   217 1
  121   219   218 1
  122   220   219 1
  123   221   220 1
  124   222   221 1
  125   223   222 1
  126   224   223 1
  127   224   219 1
  128   225   223 1
  129   226   222 1
  130   227   221 1
  131   228   220 1
  132   229   218 1
  133   230   218 1
  134   231   217 1
  135   232   217 1
  136   233   215 1
  137   234   215 1
  138   235   214 1
  139   236   214 1
  140   237   213 1
  141   238   213 1
  142   239   238 1
  143   240   238 1
  144   241   240 1
  145   242   240 1
  146   243   242 1
  147   244   242 1
  148   245   242 1
  149   246   245 1
  150   247   245 1
  151   248   245 1
  152   249   248 1
  153   250   249 1
  154   251   249 1
  155   252   251 1
  156   253   251 1
  157   254   251 1
  158   255   254 1
  159   256   254 1
  160   257   254 1
  161   257   260 1
  162   258   257 1
  163   259   257 1
  164   162   161 1
  165   163   161 1
  166   164   163 1
  167   165   163 1
  168   166   165 1
  169   167   166 1
  170   168   167 1
  171   169   168 1
  172   170   169 1
  173   171   170 1
  174   172   171 1
  175   173   171 1
  176   174   173 1
  177   175   174 1
  178   176   174 1
  179   177   174 1
  180   178   170 1
  181   179   170 1
  182   180   169 1
  183   181   169 1
  184   182   167 1
  185   183   167 1
  186   184   166 1
  187   185   166 1
  188   186   165 1
  189   187   165 1
  190   188   187 1
  191   189   187 1
  192   190   189 1
  193   191   189 1
  194   192   191 1
  195   193   191 1
  196   194   191 1
  197   195   194 1
  198   196   194 1
  199   197   194 1
  200   198   197 1
  201   199   198 1
  202   200   198 1
  203   201   200 1
  204   202   200 1
  205   203   200 1
  206   204   203 1
  207   205   203 1
  208   206   203 1
  209   206   209 1
  210   207   206 1
  211   208   206 1
  212   114   113 1
  213   115   113 1
  214   116   115 1
  215   117   115 1
  216   118   117 1
  217   119   118 1
  218   120   119 1
  219   121   120 1
  220   122   121 1
  221   123   122 1
  222   124   123 1
  223   125   123 1
  224   126   125 1
  225   127   126 1
  226   128   126 1
  227   129   126 1
  228   130   122 1
  229   131   122 1
  230   132   121 1
  231   133   121 1
  232   134   119 1
  233   135   119 1
  234   136   118 1
  235   137   118 1
  236   138   117 1
  237   139   117 1
  238   140   139 1
  239   141   139 1
  240   142   141 1
  241   143   141 1
  242   144   143 1
  243   145   143 1
  244   146   143 1
  245   147   146 1
  246   148   146 1
  247   149   146 1
  248   150   149 1
  249   151   150 1
  250   152   150 1
  251   153   152 1
  252   154   152 1
  253   155   152 1
  254   156   155 1
  255   157   155 1
  256   158   155 1
  257   158   161 1
  258   159   158 1
  259   160   158 1
  260    66    65 1
  261    67    65 1
  262    68    67 1
  263    69    67 1
  264    70    69 1
  265    71    70 1
  266    72    71 1
  267    73    72 1
  268    74    73 1
  269    75    74 1
  270    76    75 1
  271    77    75 1
  272    78    77 1
  273    79    78 1
  274    80    78 1
  275    81    78 1
  276    82    74 1
  277    83    74 1
  278    84    73 1
  279    85    73 1
  280    86    71 1
  281    87    71 1
  282    88    70 1
  283    89    70 1
  284    90    69 1
  285    91    69 1
  286    92    91 1
  287    93    91 1
  288    94    93 1
  289    95    93 1
  290    96    95 1
  291    97    95 1
  292    98    95 1
  293    99    98 1
  294   100    98 1
  295   101    98 1
  296   102   101 1
  297   103   102 1
  298   104   102 1
  299   105   104 1
  300   106   104 1
  301   107   104 1
  302   108   107 1
  303   109   107 1
  304   110   107 1
  305   110   113 1
  306   111   110 1
  307   112   110 1
  308    15    14 1
  309    16    14 1
  310    17    16 1
  311    18    16 1
  312    19    18 1
  313    20    19 1
  314    21    20 1
  315    22    21 1
  316    23    22 1
  317    24    23 1
  318    25    24 1
  319    26    25 1
  320    27    26 1
  321    28    27 1
  322    29    28 1
  323    29    24 1
  324    30    28 1
  325    31    27 1
  326    32    26 1
  327    33    25 1
  328    34    23 1
  329    35    23 1
  330    36    22 1
  331    37    22 1
  332    38    20 1
  333    39    20 1
  334    40    19 1
  335    41    19 1
  336    42    18 1
  337    43    18 1
  338    44    43 1
  339    45    43 1
  340    46    45 1
  341    47    45 1
  342    48    47 1
  343    49    47 1
  344    50    47 1
  345    51    50 1
  346    52    50 1
  347    53    50 1
  348    54    53 1
  349    55    54 1
  350    56    54 1
  351    57    56 1
  352    58    56 1
  353    59    56 1
  354    60    59 1
  355    61    59 1
  356    62    59 1
  357    62    65 1
  358    63    62 1
  359    64    62 1
  360     2     1 1
  361     3     1 1
  362     4     3 1
  363     5     3 1
  364     6     5 1
  365     7     5 1
  366     8     5 1
  367     9     8 1
  368    10     8 1
  369    11     8 1
  370    11    14 1
  371    12    11 1
  372    13    11 1
  373   372   371 1
  374   373   371 1
  375   374   371 1
  376   375   371 1
  377   376   371 1
  378   377   371 1
  379   381   380 1
  380   382   381 1
  381   383   381 1
  382   384   381 1
  383   385   384 1
  384   387   386 1
  385   388   387 1
  386   389   387 1
  387   390   387 1
  388   391   390 1
  389   393   392 1
  390   394   393 1
  391   395   393 1
  392   396   393 1
  393   397   396 1
  394   399   398 1
  395   400   399 1
  396   401   399 1
  397   402   399 1
  398   403   402 1
  399   405   404 1
  400   406   405 1
  401   407   405 1
  402   408   405 1
  403   409   408 1
  404   411   410 1
  405   412   411 1
  406   413   411 1
  407   414   411 1
  408   415   414 1
  409   417   416 1
  410   418   417 1
  411   419   417 1
  412   420   417 1
  413   421   420 1
  414   423   422 1
  415   424   423 1
  416   425   423 1
  417   426   423 1
  418   427   426 1
  419   429   428 1
  420   430   429 1
  421   431   429 1
  422   432   429 1
  423   433   432 1
  424   435   434 1
  425   436   435 1
  426   437   435 1
  427   438   435 1
  428   439   438 1
  429   441   440 1
  430   442   441 1
  431   443   441 1
  432   444   441 1
  433   445   444 1
  434   447   446 1
  435   448   447 1
  436   449   447 1
  437   450   447 1
  438   451   450 1
  439   453   452 1
  440   454   453 1
  441   455   453 1
  442   456   453 1
  443   457   456 1
  444   459   458 1
  445   460   459 1
  446   461   459 1
  447   462   459 1
  448   463   462 1
  449   465   464 1
  450   466   465 1
  451   467   465 1
  452   468   465 1
  453   469   468 1
  454   471   470 1
  455   472   471 1
  456   473   471 1
  457   474   471 1
  458   475   474 1
  459   477   476 1
  460   478   477 1
  461   479   477 1
  462   480   477 1
  463   481   480 1
  464   483   482 1
  465   484   483 1
  466   485   483 1
  467   486   483 1
  468   487   486 1
  469   489   488 1
  470   490   489 1
  471   491   489 1
  472   492   489 1
  473   493   492 1
  474   495   494 1
  475   496   495 1
  476   497   495 1
  477   498   495 1
  478   499   498 1
  479   501   500 1
  480   502   501 1
  481   503   501 1
  482   504   501 1
  483   505   504 1
  484   507   506 1
  485   508   507 1
  486   509   507 1
  487   510   507 1
  488   511   510 1
  489   513   512 1
  490   514   513 1
  491   515   513 1
  492   516   513 1
  493   517   516 1
  494   519   518 1
  495   520   519 1
  496   521   519 1
  497   522   519 1
  498   523   522 1
  499   525   524 1
  500   526   525 1
  501   527   525 1
  502   528   525 1
  503   529   528 1
  504   531   530 1
  505   532   531 1
  506   533   531 1
  507   534   531 1
  508   535   534 1
  509   537   536 1
  510   538   537 1
  511   539   537 1
  512   540   537 1
  513   541   540 1
  514   543   542 1
  515   544   543 1
  516   545   543 1
  517   546   543 1
  518   547   546 1
  519   549   548 1
  520   550   549 1
  521   551   549 1
  522   552   549 1
  523   553   552 1
  524   555   554 1
  525   556   555 1
  526   557   555 1
  527   558   555 1
  528   559   558 1
  529   561   560 1
  530   562   561 1
  531   563   561 1
  532   564   561 1
  533   565   564 1
  534   567   566 1
  535   568   567 1
  536   569   567 1
  537   570   567 1
  538   571   570 1
  539   573   572 1
  540   574   573 1
  541   575   573 1
  542   576   573 1
  543   577   576 1
  544   579   578 1
  545   580   579 1
  546   581   579 1
  547   582   579 1
  548   583   582 1
  549   585   584 1
  550   586   585 1
  551   587   585 1
  552   588   585 1
  553   589   588 1
  554   591   590 1
  555   592   591 1
  556   593   591 1
  557   594   591 1
  558   595   594 1
  559   597   596 1
  560   598   597 1
  561   599   597 1
  562   600   597 1
  563   601   600 1
  564   603   602 1
  565   604   603 1
  566   605   603 1
  567   606   603 1
  568   607   606 1
  569   609   608 1
  570   610   609 1
  571   611   609 1
  572   612   609 1
  573   613   612 1
  574   615   614 1
  575   616   615 1
  576   617   615 1
  577   618   615 1
  578   619   618 1
  579   621   620 1
  580   622   621 1
  581   623   621 1
  582   624   621 1
  583   625   624 1
  584   627   626 1
  585   628   627 1
  586   629   627 1
  587   630   627 1
  588   631   630 1
  589   633   632 1
  590   634   633 1
  591   635   633 1
  592   636   633 1
  593   637   636 1
  594   639   638 1
  595   640   639 1
  596   641   639 1
  597   642   639 1
  598   643   642 1
  599   645   644 1
  600   646   645 1
  601   647   645 1
  602   648   645 1
  603   649   648 1
  604   651   650 1
  605   652   651 1
  606   653   651 1
  607   654   651 1
  608   655   654 1
  609   657   656 1
  610   658   657 1
  611   659   657 1
  612   660   657 1
  613   661   660 1
  614   663   662 1
  615   664   663 1
  616   665   663 1
  617   666   663 1
  618   667   666 1
  619   669   668 1
  620   670   669 1
  621   671   669 1
  622   672   669 1
  623   673   672 1
  624   675   674 1
  625   676   675 1
  626   677   675 1
  627   678   675 1
  628   679   678 1
  629   681   680 1
  630   682   681 1
  631   683   681 1
  632   684   681 1
  633   685   684 1
  634   687   686 1
  635   688   687 1
  636   689   687 1
  637   690   687 1
  638   691   690 1
  639   693   692 1
  640   694   693 1
  641   695   693 1
  642   696   693 1
  643   697   696 1
  644   699   698 1
  645   700   699 1
  646   701   699 1
  647   702   699 1
  648   703   702 1
  649   705   704 1
  650   706   705 1
  651   707   705 1
  652   708   705 1
  653   709   708 1
  654   711   710 1
  655   712   711 1
  656   713   711 1
  657   714   711 1
  658   715   714 1
  659   717   716 1
  660   718   717 1
  661   719   717 1
  662   720   717 1
  663   721   720 1
  664   723   722 1
  665   724   723 1
  666   725   723 1
  667   726   723 1
  668   727   726 1
  669   729   728 1
  670   730   729 1
  671   731   729 1
  672   732   729 1
  673   733   732 1
  674   735   734 1
  675   736   735 1
  676   737   735 1
  677   738   735 1
  678   739   738 1
  679   741   740 1
  680   742   741 1
  681   743   741 1
  682   744   741 1
  683   745   744 1
  684   747   746 1
  685   748   747 1
  686   749   747 1
  687   750   747 1
  688   751   750 1
  689   753   752 1
  690   754   753 1
  691   755   753 1
  692   756   753 1
  693   757   756 1
  694   759   758 1
  695   760   759 1
  696   761   759 1
  697   762   759 1
  698   763   762 1
  699   765   764 1
  700   766   765 1
  701   767   765 1
  702   768   765 1
  703   769   768 1
  704   771   770 1
  705   772   771 1
  706   773   771 1
  707   774   771 1
  708   775   774 1
  709   777   776 1
  710   778   777 1
  711   779   777 1
  712   780   777 1
  713   781   780 1
  714   783   782 1
  715   784   783 1
  716   785   783 1
  717   786   783 1
  718   787   786 1
  719   789   788 1
  720   790   789 1
  721   791   789 1
  722   792   789 1
  723   793   792 1
  724   795   794 1
  725   796   795 1
  726   797   795 1
  727   798   795 1
  728   799   798 1
  729   801   800 1
  730   802   801 1
  731   803   801 1
  732   804   801 1
  733   805   804 1
  734   807   806 1
  735   808   807 1
  736   809   807 1
  737   810   807 1
  738   811   810 1
  739   813   812 1
  740   814   813 1
  741   815   813 1
  742   816   813 1
  743   817   816 1
  744   819   818 1
  745   820   819 1
  746   821   819 1
  747   822   819 1
  748   823   822 1
  749   825   824 1
  750   826   825 1
  751   827   825 1
  752   828   825 1
  753   829   828 1
  754   831   830 1
  755   832   831 1
  756   833   831 1
  757   834   831 1
  758   835   834 1
  759   837   836 1
  760   838   837 1
  761   839   837 1
  762   840   837 1
  763   841   840 1
  764   843   842 1
  765   844   843 1
  766   845   843 1
  767   846   843 1
  768   847   846 1
  769   849   848 1
  770   850   849 1
  771   851   849 1
  772   852   849 1
  773   853   852 1
  774   855   854 1
  775   856   855 1
  776   857   855 1
  777   858   855 1
  778   859   858 1
  779   861   860 1
  780   862   861 1
  781   863   861 1
  782   864   861 1
  783   865   864 1
  784   867   866 1
  785   868   867 1
  786   869   867 1
  787   870   867 1
  788   871   870 1
  789   873   872 1
  790   874   873 1
  791   875   873 1
  792   876   873 1
  793   877   876 1
  794   879   878 1
  795   880   879 1
  796   881   879 1
  797   882   879 1
  798   883   882 1
  799   885   884 1
  800   886   885 1
  801   887   885 1
  802   888   885 1
  803   889   888 1
  804   891   890 1
  805   892   891 1
  806   893   891 1
  807   894   891 1
  808   895   894 1
  809   897   896 1
  810   898   897 1
  811   899   897 1
  812   900   897 1
  813   901   900 1
  814   903   902 1
  815   904   903 1
  816   905   903 1
  817   906   903 1
  818   907   906 1
  819   909   908 1
  820   910   909 1
  821   911   909 1
  822   912   909 1
  823   913   912 1
  824   915   914 1
  825   916   915 1
  826   917   915 1
  827   918   915 1
  828   919   918 1
  829   921   920 1
  830   922   921 1
  831   923   921 1
  832   924   921 1
  833   925   924 1
  834   927   926 1
  835   928   927 1
  836   929   927 1
  837   930   927 1
  838   931   930 1
  839   933   932 1
  840   934   933 1
  841   935   933 1
  842   936   933 1
  843   937   936 1
  844   939   938 1
  845   940   939 1
  846   941   939 1
  847   942   939 1
  848   943   942 1
  849   945   944 1
  850   946   945 1
  851   947   945 1
  852   948   945 1
  853   949   948 1
  854   951   950 1
  855   952   951 1
  856   953   951 1
  857   954   951 1
  858   955   954 1
  859   957   956 1
  860   958   957 1
  861   959   957 1
  862   960   957 1
  863   961   960 1
  864   963   962 1
  865   964   963 1
  866   965   963 1
  867   966   963 1
  868   967   966 1
  869   969   968 1
  870   970   969 1
  871   971   969 1
  872   972   969 1
  873   973   972 1
  874   975   974 1
  875   976   975 1
  876   977   975 1
  877   978   975 1
  878   979   978 1
  879   981   980 1
  880   982   981 1
  881   983   981 1
  882   984   981 1
  883   985   984 1
  884   987   986 1
  885   988   987 1
  886   989   987 1
  887   990   987 1
  888   991   990 1
  889   993   992 1
  890   994   993 1
  891   995   993 1
  892   996   993 1
  893   997   996 1
  894   999   998 1
  895  1000   999 1
  896  1001   999 1
  897  1002   999 1
  898  1003  1002 1
  899  1005  1004 1
  900  1006  1005 1
  901  1007  1005 1
  902  1008  1005 1
  903  1009  1008 1
  904  1011  1010 1
  905  1012  1011 1
  906  1013  1011 1
  907  1014  1011 1
  908  1015  1014 1
  909  1017  1016 1
  910  1018  1017 1
  911  1019  1017 1
  912  1020  1017 1
  913  1021  1020 1
  914  1023  1022 1
  915  1024  1023 1
  916  1025  1023 1
  917  1026  1023 1
  918  1027  1026 1
  919  1029  1028 1
  920  1030  1029 1
  921  1031  1029 1
  922  1032  1029 1
  923  1033  1032 1
  924  1035  1034 1
  925  1036  1035 1
  926  1037  1035 1
  927  1038  1035 1
  928  1039  1038 1
  929  1041  1040 1
  930  1042  1041 1
  931  1043  1041 1
  932  1044  1041 1
  933  1045  1044 1
  934  1047  1046 1
  935  1048  1047 1
  936  1049  1047 1
  937  1050  1047 1
  938  1051  1050 1
  939  1053  1052 1
  940  1054  1053 1
  941  1055  1053 1
  942  1056  1053 1
  943  1057  1056 1
  944  1059  1058 1
  945  1060  1059 1
  946  1061  1059 1
  947  1062  1059 1
  948  1063  1062 1
  949  1065  1064 1
  950  1066  1065 1
  951  1067  1065 1
  952  1068  1065 1
  953  1069  1068 1
  954  1071  1070 1
  955  1072  1071 1
  956  1073  1071 1
  957  1074  1071 1
  958  1075  1074 1
  959  1077  1076 1
  960  1078  1077 1
  961  1079  1077 1
  962  1080  1077 1
  963  1081  1080 1
  964  1083  1082 1
  965  1084  1083 1
  966  1085  1083 1
  967  1086  1083 1
  968  1087  1086 1
  969  1089  1088 1
  970  1090  1089 1
  971  1091  1089 1
  972  1092  1089 1
  973  1093  1092 1
  974  1095  1094 1
  975  1096  1095 1
  976  1097  1095 1
  977  1098  1095 1
  978  1099  1098 1
  979  1101  1100 1
  980  1102  1101 1
  981  1103  1101 1
  982  1104  1101 1
  983  1105  1104 1
  984  1107  1106 1
  985  1108  1107 1
  986  1109  1107 1
  987  1110  1107 1
  988  1111  1110 1
  989  1113  1112 1
  990  1114  1113 1
  991  1115  1113 1
  992  1116  1113 1
  993  1117  1116 1
  994  1119  1118 1
  995  1120  1119 1
  996  1121  1119 1
  997  1122  1119 1
  998  1123  1122 1
  999  1125  1124 1
 1000  1126  1125 1
 1001  1127  1125 1
 1002  1128  1125 1
 1003  1129  1128 1
 1004  1131  1130 1
 1005  1132  1131 1
 1006  1133  1131 1
 1007  1134  1131 1
 1008  1135  1134 1
 1009  1137  1136 1
 1010  1138  1137 1
 1011  1139  1137 1
 1012  1140  1137 1
 1013  1141  1140 1
 1014  1143  1142 1
 1015  1144  1143 1
 1016  1145  1143 1
 1017  1146  1143 1
 1018  1147  1146 1
 1019  1149  1148 1
 1020  1150  1149 1
 1021  1151  1149 1
 1022  1152  1149 1
 1023  1153  1152 1
 1024  1155  1154 1
 1025  1156  1155 1
 1026  1157  1155 1
 1027  1158  1155 1
 1028  1159  1158 1
 1029  1161  1160 1
 1030  1162  1161 1
 1031  1163  1161 1
 1032  1164  1161 1
 1033  1165  1164 1
 1034  1167  1166 1
 1035  1168  1167 1
 1036  1169  1167 1
 1037  1170  1167 1
 1038  1171  1170 1
 1039  1173  1172 1
 1040  1174  1173 1
 1041  1175  1173 1
 1042  1176  1173 1
 1043  1177  1176 1
 1044  1179  1178 1
 1045  1180  1179 1
 1046  1181  1179 1
 1047  1182  1179 1
 1048  1183  1182 1
 1049  1185  1184 1
 1050  1186  1185 1
 1051  1187  1185 1
 1052  1188  1185 1
 1053  1189  1188 1
 1054  1191  1190 1
 1055  1192  1191 1
 1056  1193  1191 1
 1057  1194  1191 1
 1058  1195  1194 1
 1059  1197  1196 1
 1060  1198  1197 1
 1061  1199  1197 1
 1062  1200  1197 1
 1063  1201  1200 1
 1064  1203  1202 1
 1065  1204  1203 1
 1066  1205  1203 1
 1067  1206  1203 1
 1068  1207  1206 1
 1069  1209  1208 1
 1070  1210  1209 1
 1071  1211  1209 1
 1072  1212  1209 1
 1073  1213  1212 1
 1074  1215  1214 1
 1075  1216  1215 1
 1076  1217  1215 1
 1077  1218  1215 1
 1078  1219  1218 1
 1079  1221  1220 1
 1080  1222  1221 1
 1081  1223  1221 1
 1082  1224  1221 1
 1083  1225  1224 1
 1084  1227  1226 1
 1085  1228  1227 1
 1086  1229  1227 1
 1087  1230  1227 1
 1088  1231  1230 1
 1089  1233  1232 1
 1090  1234  1233 1
 1091  1235  1233 1
 1092  1236  1233 1
 1093  1237  1236 1
 1094  1239  1238 1
 1095  1240  1239 1
 1096  1241  1239 1
 1097  1242  1239 1
 1098  1243  1242 1
 1099  1245  1244 1
 1100  1246  1245 1
 1101  1247  1245 1
 1102  1248  1245 1
 1103  1249  1248 1
 1104  1251  1250 1
 1105  1252  1251 1
 1106  1253  1251 1
 1107  1254  1251 1
 1108  1255  1254 1
 1109  1257  1256 1
 1110  1258  1257 1
 1111  1259  1257 1
 1112  1260  1257 1
 1113  1261  1260 1
 1114  1263  1262 1
 1115  1264  1263 1
 1116  1265  1263 1
 1117  1266  1263 1
 1118  1267  1266 1
 1119  1269  1268 1
 1120  1270  1269 1
 1121  1271  1269 1
 1122  1272  1269 1
 1123  1273  1272 1
 1124  1275  1274 1
 1125  1276  1275 1
 1126  1277  1275 1
 1127  1278  1275 1
 1128  1279  1278 1
 1129  1281  1280 1
 1130  1282  1281 1
 1131  1283  1281 1
 1132  1284  1281 1
 1133  1285  1284 1
 1134  1287  1286 1
 1135  1288  1287 1
 1136  1289  1287 1
 1137  1290  1287 1
 1138  1291  1290 1
 1139  1293  1292 1
 1140  1294  1293 1
 1141  1295  1293 1
 1142  1296  1293 1
 1143  1297  1296 1
 1144  1299  1298 1
 1145  1300  1299 1
 1146  1301  1299 1
 1147  1302  1299 1
 1148  1303  1302 1
 1149  1305  1304 1
 1150  1306  1305 1
 1151  1307  1305 1
 1152  1308  1305 1
 1153  1309  1308 1
 1154  1311  1310 1
 1155  1312  1311 1
 1156  1313  1311 1
 1157  1314  1311 1
 1158  1315  1314 1
 1159  1317  1316 1
 1160  1318  1317 1
 1161  1319  1317 1
 1162  1320  1317 1
 1163  1321  1320 1
 1164  1323  1322 1
 1165  1324  1323 1
 1166  1325  1323 1
 1167  1326  1323 1
 1168  1327  1326 1
 1169  1329  1328 1
 1170  1330  1329 1
 1171  1331  1329 1
 1172  1332  1329 1
 1173  1333  1332 1
 1174  1335  1334 1
 1175  1336  1335 1
 1176  1337  1335 1
 1177  1338  1335 1
 1178  1339  1338 1
 1179  1341  1340 1
 1180  1342  1341 1
 1181  1343  1341 1
 1182  1344  1341 1
 1183  1345  1344 1
 1184  1347  1346 1
 1185  1348  1347 1
 1186  1349  1347 1
 1187  1350  1347 1
 1188  1351  1350 1
 1189  1353  1352 1
 1190  1354  1353 1
 1191  1355  1353 1
 1192  1356  1353 1
 1193  1357  1356 1
 1194  1359  1358 1
 1195  1360  1359 1
 1196  1361  1359 1
 1197  1362  1359 1
 1198  1363  1362 1
 1199  1365  1364 1
 1200  1366  1365 1
 1201  1367  1365 1
 1202  1368  1365 1
 1203  1369  1368 1
 1204  1371  1370 1
 1205  1372  1371 1
 1206  1373  1371 1
 1207  1374  1371 1
 1208  1375  1374 1
 1209  1377  1376 1
 1210  1378  1377 1
 1211  1379  1377 1
 1212  1380  1377 1
 1213  1381  1380 1
 1214  1383  1382 1
 1215  1384  1383 1
 1216  1385  1383 1
 1217  1386  1383 1
 1218  1387  1386 1
 1219  1389  1388 1
 1220  1390  1389 1
 1221  1391  1389 1
 1222  1392  1389 1
 1223  1393  1392 1
 1224  1395  1394 1
 1225  1396  1395 1
 1226  1397  1395 1
 1227  1398  1395 1
 1228  1399  1398 1
 1229  1401  1400 1
 1230  1402  1401 1
 1231  1403  1401 1
 1232  1404  1401 1
 1233  1405  1404 1
 1234  1407  1406 1
 1235  1408  1407 1
 1236  1409  1407 1
 1237  1410  1407 1
 1238  1411  1410 1
 1239  1413  1412 1
 1240  1414  1413 1
 1241  1415  1413 1
 1242  1416  1413 1
 1243  1417  1416 1
 1244  1419  1418 1
 1245  1420  1419 1
 1246  1421  1419 1
 1247  1422  1419 1
 1248  1423  1422 1
 1249  1425  1424 1
 1250  1426  1425 1
 1251  1427  1425 1
 1252  1428  1425 1
 1253  1429  1428 1
 1254  1431  1430 1
 1255  1432  1431 1
 1256  1433  1431 1
 1257  1434  1431 1
 1258  1435  1434 1
 1259  1437  1436 1
 1260  1438  1437 1
 1261  1439  1437 1
 1262  1440  1437 1
 1263  1441  1440 1
 1264  1443  1442 1
 1265  1444  1443 1
 1266  1445  1443 1
 1267  1446  1443 1
 1268  1447  1446 1
 1269  1449  1448 1
 1270  1450  1449 1
 1271  1451  1449 1
 1272  1452  1449 1
 1273  1453  1452 1
 1274  1455  1454 1
 1275  1456  1455 1
 1276  1457  1455 1
 1277  1458  1455 1
 1278  1459  1458 1
 1279  1461  1460 1
 1280  1462  1461 1
 1281  1463  1461 1
 1282  1464  1461 1
 1283  1465  1464 1
 1284  1467  1466 1
 1285  1468  1467 1
 1286  1469  1467 1
 1287  1470  1467 1
 1288  1471  1470 1
 1289  1473  1472 1
 1290  1474  1473 1
 1291  1475  1473 1
 1292  1476  1473 1
 1293  1477  1476 1
 1294  1479  1478 1
 1295  1480  1479 1
 1296  1481  1479 1
 1297  1482  1479 1
 1298  1483  1482 1
 1299  1485  1484 1
 1300  1486  1485 1
 1301  1487  1485 1
 1302  1488  1485 1
 1303  1489  1488 1
 1304  1491  1490 1
 1305  1492  1491 1
 1306  1493  1491 1
 1307  1494  1491 1
 1308  1495  1494 1
 1309  1497  1496 1
 1310  1498  1497 1
 1311  1499  1497 1
 1312  1500  1497 1
 1313  1501  1500 1
 1314  1503  1502 1
 1315  1504  1503 1
 1316  1505  1503 1
 1317  1506  1503 1
 1318  1507  1506 1
 1319  1509  1508 1
 1320  1510  1509 1
 1321  1511  1509 1
 1322  1512  1509 1
 1323  1513  1512 1
 1324  1515  1514 1
 1325  1516  1515 1
 1326  1517  1515 1
 1327  1518  1515 1
 1328  1519  1518 1
 1329  1521  1520 1
 1330  1522  1521 1
 1331  1523  1521 1
 1332  1524  1521 1
 1333  1525  1524 1
 1334  1527  1526 1
 1335  1528  1527 1
 1336  1529  1527 1
 1337  1530  1527 1
 1338  1531  1530 1
 1339  1533  1532 1
 1340  1534  1533 1
 1341  1535  1533 1
 1342  1536  1533 1
 1343  1537  1536 1
 1344  1539  1538 1
 1345  1540  1539 1
 1346  1541  1539 1
 1347  1542  1539 1
 1348  1543  1542 1
 1349  1545  1544 1
 1350  1546  1545 1
 1351  1547  1545 1
 1352  1548  1545 1
 1353  1549  1548 1
 1354  1551  1550 1
 1355  1552  1551 1
 1356  1553  1551 1
 1357  1554  1551 1
 1358  1555  1554 1
 1359  1557  1556 1
 1360  1558  1557 1
 1361  1559  1557 1
 1362  1560  1557 1
 1363  1561  1560 1
 1364  1563  1562 1
 1365  1564  1563 1
 1366  1565  1563 1
 1367  1566  1563 1
 1368  1567  1566 1
 1369  1569  1568 1
 1370  1570  1569 1
 1371  1571  1569 1
 1372  1572  1569 1
 1373  1573  1572 1
 1374  1575  1574 1
 1375  1576  1575 1
 1376  1577  1575 1
 1377  1578  1575 1
 1378  1579  1578 1
 1379  1581  1580 1
 1380  1582  1581 1
 1381  1583  1581 1
 1382  1584  1581 1
 1383  1585  1584 1
 1384  1587  1586 1
 1385  1588  1587 1
 1386  1589  1587 1
 1387  1590  1587 1
 1388  1591  1590 1
 1389  1593  1592 1
 1390  1594  1593 1
 1391  1595  1593 1
 1392  1596  1593 1
 1393  1597  1596 1
 1394  1599  1598 1
 1395  1600  1599 1
 1396  1601  1599 1
 1397  1602  1599 1
 1398  1603  1602 1
 1399  1605  1604 1
 1400  1606  1605 1
 1401  1607  1605 1
 1402  1608  1605 1
 1403  1609  1608 1
 1404  1611  1610 1
 1405  1612  1611 1
 1406  1613  1611 1
 1407  1614  1611 1
 1408  1615  1614 1
 1409  1617  1616 1
 1410  1618  1617 1
 1411  1619  1617 1
 1412  1620  1617 1
 1413  1621  1620 1
 1414  1623  1622 1
 1415  1624  1623 1
 1416  1625  1623 1
 1417  1626  1623 1
 1418  1627  1626 1
 1419  1629  1628 1
 1420  1630  1629 1
 1421  1631  1629 1
 1422  1632  1629 1
 1423  1633  1632 1
 1424  1635  1634 1
 1425  1636  1635 1
 1426  1637  1635 1
 1427  1638  1635 1
 1428  1639  1638 1
 1429  1641  1640 1
 1430  1642  1641 1
 1431  1643  1641 1
 1432  1644  1641 1
 1433  1645  1644 1
 1434  1647  1646 1
 1435  1648  1647 1
 1436  1649  1647 1
 1437  1650  1647 1
 1438  1651  1650 1
 1439  1653  1652 1
 1440  1654  1653 1
 1441  1655  1653 1
 1442  1656  1653 1
 1443  1657  1656 1
 1444  1659  1658 1
 1445  1660  1659 1
 1446  1661  1659 1
 1447  1662  1659 1
 1448  1663  1662 1
 1449  1665  1664 1
 1450  1666  1665 1
 1451  1667  1665 1
 1452  1668  1665 1
 1453  1669  1668 1
 1454  1671  1670 1
 1455  1672  1671 1
 1456  1673  1671 1
 1457  1674  1671 1
 1458  1675  1674 1
 1459  1677  1676 1
 1460  1678  1677 1
 1461  1679  1677 1
 1462  1680  1677 1
 1463  1681  1680 1
 1464  1683  1682 1
 1465  1684  1683 1
 1466  1685  1683 1
 1467  1686  1683 1
 1468  1687  1686 1
 1469  1689  1688 1
 1470  1690  1689 1
 1471  1691  1689 1
 1472  1692  1689 1
 1473  1693  1692 1
 1474  1695  1694 1
 1475  1696  1695 1
 1476  1697  1695 1
 1477  1698  1695 1
 1478  1699  1698 1
 1479  1701  1700 1
 1480  1702  1701 1
 1481  1703  1701 1
 1482  1704  1701 1
 1483  1705  1704 1
 1484  1707  1706 1
 1485  1708  1707 1
 1486  1709  1707 1
 1487  1710  1707 1
 1488  1711  1710 1
 1489  1713  1712 1
 1490  1714  1713 1
 1491  1715  1713 1
 1492  1716  1713 1
 1493  1717  1716 1
 1494  1719  1718 1
 1495  1720  1719 1
 1496  1721  1719 1
 1497  1722  1719 1
 1498  1723  1722 1
 1499  1725  1724 1
 1500  1726  1725 1
 1501  1727  1725 1
 1502  1728  1725 1
 1503  1729  1728 1
 1504  1731  1730 1
 1505  1732  1731 1
 1506  1733  1731 1
 1507  1734  1731 1
 1508  1735  1734 1
 1509  1737  1736 1
 1510  1738  1737 1
 1511  1739  1737 1
 1512  1740  1737 1
 1513  1741  1740 1
 1514  1743  1742 1
 1515  1744  1743 1
 1516  1745  1743 1
 1517  1746  1743 1
 1518  1747  1746 1
 1519  1749  1748 1
 1520  1750  1749 1
 1521  1751  1749 1
 1522  1752  1749 1
 1523  1753  1752 1
 1524  1755  1754 1
 1525  1756  1755 1
 1526  1757  1755 1
 1527  1758  1755 1
 1528  1759  1758 1
 1529  1761  1760 1
 1530  1762  1761 1
 1531  1763  1761 1
 1532  1764  1761 1
 1533  1765  1764 1
 1534  1767  1766 1
 1535  1768  1767 1
 1536  1769  1767 1
 1537  1770  1767 1
 1538  1771  1770 1
 1539  1773  1772 1
 1540  1774  1773 1
 1541  1775  1773 1
 1542  1776  1773 1
 1543  1777  1776 1
 1544  1779  1778 1
 1545  1780  1779 1
 1546  1781  1779 1
 1547  1782  1779 1
 1548  1783  1782 1
 1549  1785  1784 1
 1550  1786  1785 1
 1551  1787  1785 1
 1552  1788  1785 1
 1553  1789  1788 1
 1554  1791  1790 1
 1555  1792  1791 1
 1556  1793  1791 1
 1557  1794  1791 1
 1558  1795  1794 1
 1559  1797  1796 1
 1560  1798  1797 1
 1561  1799  1797 1
 1562  1800  1797 1
 1563  1801  1800 1
 1564  1803  1802 1
 1565  1804  1803 1
 1566  1805  1803 1
 1567  1806  1803 1
 1568  1807  1806 1
 1569  1809  1808 1
 1570  1810  1809 1
 1571  1811  1809 1
 1572  1812  1809 1
 1573  1813  1812 1
 1574  1815  1814 1
 1575  1816  1815 1
 1576  1817  1815 1
 1577  1818  1815 1
 1578  1819  1818 1
 1579  1821  1820 1
 1580  1822  1821 1
 1581  1823  1821 1
 1582  1824  1821 1
 1583  1825  1824 1
 1584  1827  1826 1
 1585  1828  1827 1
 1586  1829  1827 1
 1587  1830  1827 1
 1588  1831  1830 1
 1589  1833  1832 1
 1590  1834  1833 1
 1591  1835  1833 1
 1592  1836  1833 1
 1593  1837  1836 1
 1594  1839  1838 1
 1595  1840  1839 1
 1596  1841  1839 1
 1597  1842  1839 1
 1598  1843  1842 1
 1599  1845  1844 1
 1600  1846  1845 1
 1601  1847  1845 1
 1602  1848  1845 1
 1603  1849  1848 1
 1604  1851  1850 1
 1605  1852  1851 1
 1606  1853  1851 1
 1607  1854  1851 1
 1608  1855  1854 1
 1609  1857  1856 1
 1610  1858  1857 1
 1611  1859  1857 1
 1612  1860  1857 1
 1613  1861  1860 1
 1614  1863  1862 1
 1615  1864  1863 1
 1616  1865  1863 1
 1617  1866  1863 1
 1618  1867  1866 1
 1619  1869  1868 1
 1620  1870  1869 1
 1621  1871  1869 1
 1622  1872  1869 1
 1623  1873  1872 1
 1624  1875  1874 1
 1625  1876  1875 1
 1626  1877  1875 1
 1627  1878  1875 1
 1628  1879  1878 1
 1629  1881  1880 1
 1630  1882  1881 1
 1631  1883  1881 1
 1632  1884  1881 1
 1633  1885  1884 1
 1634  1887  1886 1
 1635  1888  1887 1
 1636  1889  1887 1
 1637  1890  1887 1
 1638  1891  1890 1
 1639  1893  1892 1
 1640  1894  1893 1
 1641  1895  1893 1
 1642  1896  1893 1
 1643  1897  1896 1
 1644  1899  1898 1
 1645  1900  1899 1
 1646  1901  1899 1
 1647  1902  1899 1
 1648  1903  1902 1
 1649  1905  1904 1
 1650  1906  1905 1
 1651  1907  1905 1
 1652  1908  1905 1
 1653  1909  1908 1
 1654  1911  1910 1
 1655  1912  1911 1
 1656  1913  1911 1
 1657  1914  1911 1
 1658  1915  1914 1
 1659  1917  1916 1
 1660  1918  1917 1
 1661  1919  1917 1
 1662  1920  1917 1
 1663  1921  1920 1
 1664  1923  1922 1
 1665  1924  1923 1
 1666  1925  1923 1
 1667  1926  1923 1
 1668  1927  1926 1
 1669  1929  1928 1
 1670  1930  1929 1
 1671  1931  1929 1
 1672  1932  1929 1
 1673  1933  1932 1
 1674  1935  1934 1
 1675  1936  1935 1
 1676  1937  1935 1
 1677  1938  1935 1
 1678  1939  1938 1
 1679  1941  1940 1
 1680  1942  1941 1
 1681  1943  1941 1
 1682  1944  1941 1
 1683  1945  1944 1
 1684  1947  1946 1
 1685  1948  1947 1
 1686  1949  1947 1
 1687  1950  1947 1
 1688  1951  1950 1
 1689  1953  1952 1
 1690  1954  1953 1
 1691  1955  1953 1
 1692  1956  1953 1
 1693  1957  1956 1
 1694  1959  1958 1
 1695  1960  1959 1
 1696  1961  1959 1
 1697  1962  1959 1
 1698  1963  1962 1
 1699  1965  1964 1
 1700  1966  1965 1
 1701  1967  1965 1
 1702  1968  1965 1
 1703  1969  1968 1
 1704  1971  1970 1
 1705  1972  1971 1
 1706  1973  1971 1
 1707  1974  1971 1
 1708  1975  1974 1
 1709  1977  1976 1
 1710  1978  1977 1
 1711  1979  1977 1
 1712  1980  1977 1
 1713  1981  1980 1
 1714  1983  1982 1
 1715  1984  1983 1
 1716  1985  1983 1
 1717  1986  1983 1
 1718  1987  1986 1
 1719  1989  1988 1
 1720  1990  1989 1
 1721  1991  1989 1
 1722  1992  1989 1
 1723  1993  1992 1
 1724  1995  1994 1
 1725  1996  1995 1
 1726  1997  1995 1
 1727  1998  1995 1
 1728  1999  1998 1
 1729  2001  2000 1
 1730  2002  2001 1
 1731  2003  2001 1
 1732  2004  2001 1
 1733  2005  2004 1
 1734  2007  2006 1
 1735  2008  2007 1
 1736  2009  2007 1
 1737  2010  2007 1
 1738  2011  2010 1
 1739  2013  2012 1
 1740  2014  2013 1
 1741  2015  2013 1
 1742  2016  2013 1
 1743  2017  2016 1
 1744  2019  2018 1
 1745  2020  2019 1
 1746  2021  2019 1
 1747  2022  2019 1
 1748  2023  2022 1
 1749  2025  2024 1
 1750  2026  2025 1
 1751  2027  2025 1
 1752  2028  2025 1
 1753  2029  2028 1
 1754  2031  2030 1
 1755  2032  2031 1
 1756  2033  2031 1
 1757  2034  2031 1
 1758  2035  2034 1
 1759  2037  2036 1
 1760  2038  2037 1
 1761  2039  2037 1
 1762  2040  2037 1
 1763  2041  2040 1
 1764  2043  2042 1
 1765  2044  2043 1
 1766  2045  2043 1
 1767  2046  2043 1
 1768  2047  2046 1
 1769  2049  2048 1
 1770  2050  2049 1
 1771  2051  2049 1
 1772  2052  2049 1
 1773  2053  2052 1
 1774  2055  2054 1
 1775  2056  2055 1
 1776  2057  2055 1
 1777  2058  2055 1
 1778  2059  2058 1
 1779  2061  2060 1
 1780  2062  2061 1
 1781  2063  2061 1
 1782  2064  2061 1
 1783  2065  2064 1
 1784  2067  2066 1
 1785  2068  2067 1
 1786  2069  2067 1
 1787  2070  2067 1
 1788  2071  2070 1
 1789  2073  2072 1
 1790  2074  2073 1
 1791  2075  2073 1
 1792  2076  2073 1
 1793  2077  2076 1
 1794  2079  2078 1
 1795  2080  2079 1
 1796  2081  2079 1
 1797  2082  2079 1
 1798  2083  2082 1
 1799  2085  2084 1
 1800  2086  2085 1
 1801  2087  2085 1
 1802  2088  2085 1
 1803  2089  2088 1
 1804  2091  2090 1
 1805  2092  2091 1
 1806  2093  2091 1
 1807  2094  2091 1
 1808  2095  2094 1
 1809  2097  2096 1
 1810  2098  2097 1
 1811  2099  2097 1
 1812  2100  2097 1
 1813  2101  2100 1
 1814  2103  2102 1
 1815  2104  2103 1
 1816  2105  2103 1
 1817  2106  2103 1
 1818  2107  2106 1
 1819  2109  2108 1
 1820  2110  2109 1
 1821  2111  2109 1
 1822  2112  2109 1
 1823  2113  2112 1
 1824  2115  2114 1
 1825  2116  2115 1
 1826  2117  2115 1
 1827  2118  2115 1
 1828  2119  2118 1
 1829  2121  2120 1
 1830  2122  2121 1
 1831  2123  2121 1
 1832  2124  2121 1
 1833  2125  2124 1
 1834  2127  2126 1
 1835  2128  2127 1
 1836  2129  2127 1
 1837  2130  2127 1
 1838  2131  2130 1
 1839  2133  2132 1
 1840  2134  2133 1
 1841  2135  2133 1
 1842  2136  2133 1
 1843  2137  2136 1
 1844  2139  2138 1
 1845  2140  2139 1
 1846  2141  2139 1
 1847  2142  2139 1
 1848  2143  2142 1
 1849  2145  2144 1
 1850  2146  2145 1
 1851  2147  2145 1
 1852  2148  2145 1
 1853  2149  2148 1
 1854  2151  2150 1
 1855  2152  2151 1
 1856  2153  2151 1
 1857  2154  2151 1
 1858  2155  2154 1
 1859  2157  2156 1
 1860  2158  2157 1
 1861  2159  2157 1
 1862  2160  2157 1
 1863  2161  2160 1
 1864  2163  2162 1
 1865  2164  2163 1
 1866  2165  2163 1
 1867  2166  2163 1
 1868  2167  2166 1
 1869  2169  2168 1
 1870  2170  2169 1
 1871  2171  2169 1
 1872  2172  2169 1
 1873  2173  2172 1
 1874  2175  2174 1
 1875  2176  2175 1
 1876  2177  2175 1
 1877  2178  2175 1
 1878  2179  2178 1
 1879  2181  2180 1
 1880  2182  2181 1
 1881  2183  2181 1
 1882  2184  2181 1
 1883  2185  2184 1
 1884  2187  2186 1
 1885  2188  2187 1
 1886  2189  2187 1
 1887  2190  2187 1
 1888  2191  2190 1
 1889  2193  2192 1
 1890  2194  2193 1
 1891  2195  2193 1
 1892  2196  2193 1
 1893  2197  2196 1
 1894  2199  2198 1
 1895  2200  2199 1
 1896  2201  2199 1
 1897  2202  2199 1
 1898  2203  2202 1
 1899  2205  2204 1
 1900  2206  2205 1
 1901  2207  2205 1
 1902  2208  2205 1
 1903  2209  2208 1
 1904  2211  2210 1
 1905  2212  2211 1
 1906  2213  2211 1
 1907  2214  2211 1
 1908  2215  2214 1
 1909  2217  2216 1
 1910  2218  2217 1
 1911  2219  2217 1
 1912  2220  2217 1
 1913  2221  2220 1
 1914  2223  2222 1
 1915  2224  2223 1
 1916  2225  2223 1
 1917  2226  2223 1
 1918  2227  2226 1
 1919  2229  2228 1
 1920  2230  2229 1
 1921  2231  2229 1
 1922  2232  2229 1
 1923  2233  2232 1
 1924  2235  2234 1
 1925  2236  2235 1
 1926  2237  2235 1
 1927  2238  2235 1
 1928  2239  2238 1
 1929  2241  2240 1
 1930  2242  2241 1
 1931  2243  2241 1
 1932  2244  2241 1
 1933  2245  2244 1
 1934  2247  2246 1
 1935  2248  2247 1
 1936  2249  2247 1
 1937  2250  2247 1
 1938  2251  2250 1
 1939  2253  2252 1
 1940  2254  2253 1
 1941  2255  2253 1
 1942  2256  2253 1
 1943  2257  2256 1
 1944  2259  2258 1
 1945  2260  2259 1
 1946  2261  2259 1
 1947  2262  2259 1
 1948  2263  2262 1
 1949  2265  2264 1
 1950  2266  2265 1
 1951  2267  2265 1
 1952  2268  2265 1
 1953  2269  2268 1
 1954  2271  2270 1
 1955  2272  2271 1
 1956  2273  2271 1
 1957  2274  2271 1
 1958  2275  2274 1
 1959  2277  2276 1
 1960  2278  2277 1
 1961  2279  2277 1
 1962  2280  2277 1
 1963  2281  2280 1
 1964  2283  2282 1
 1965  2284  2283 1
 1966  2285  2283 1
 1967  2286  2283 1
 1968  2287  2286 1
 1969  2289  2288 1
 1970  2290  2289 1
 1971  2291  2289 1
 1972  2292  2289 1
 1973  2293  2292 1
 1974  2295  2294 1
 1975  2296  2295 1
 1976  2297  2295 1
 1977  2298  2295 1
 1978  2299  2298 1
 1979  2301  2300 1
 1980  2302  2301 1
 1981  2303  2301 1
 1982  2304  2301 1
 1983  2305  2304 1
 1984  2307  2306 1
 1985  2308  2307 1
 1986  2309  2307 1
 1987  2310  2307 1
 1988  2311  2310 1
 1989  2313  2312 1
 1990  2314  2313 1
 1991  2315  2313 1
 1992  2316  2313 1
 1993  2317  2316 1
 1994  2319  2318 1
 1995  2320  2319 1
 1996  2321  2319 1
 1997  2322  2319 1
 1998  2323  2322 1
 1999  2325  2324 1
 2000  2326  2325 1
 2001  2327  2325 1
 2002  2328  2325 1
 2003  2329  2328 1
 2004  2331  2330 1
 2005  2332  2331 1
 2006  2333  2331 1
 2007  2334  2331 1
 2008  2335  2334 1
 2009  2337  2336 1
 2010  2338  2337 1
 2011  2339  2337 1
 2012  2340  2337 1
 2013  2341  2340 1
 2014  2343  2342 1
 2015  2344  2343 1
 2016  2345  2343 1
 2017  2346  2343 1
 2018  2347  2346 1
 2019  2349  2348 1
 2020  2350  2349 1
 2021  2351  2349 1
 2022  2352  2349 1
 2023  2353  2352 1
 2024  2355  2354 1
 2025  2356  2355 1
 2026  2357  2355 1
 2027  2358  2355 1
 2028  2359  2358 1
 2029  2361  2360 1
 2030  2362  2361 1
 2031  2363  2361 1
 2032  2364  2361 1
 2033  2365  2364 1
 2034  2367  2366 1
 2035  2368  2367 1
 2036  2369  2367 1
 2037  2370  2367 1
 2038  2371  2370 1
 2039  2373  2372 1
 2040  2374  2373 1
 2041  2375  2373 1
 2042  2376  2373 1
 2043  2377  2376 1
 2044  2379  2378 1
 2045  2380  2379 1
 2046  2381  2379 1
 2047  2382  2379 1
 2048  2383  2382 1
 2049  2385  2384 1
 2050  2386  2385 1
 2051  2387  2385 1
 2052  2388  2385 1
 2053  2389  2388 1
 2054  2391  2390 1
 2055  2392  2391 1
 2056  2393  2391 1
 2057  2394  2391 1
 2058  2395  2394 1
 2059  2397  2396 1
 2060  2398  2397 1
 2061  2399  2397 1
 2062  2400  2397 1
 2063  2401  2400 1
 2064  2403  2402 1
 2065  2404  2403 1
 2066  2405  2403 1
 2067  2406  2403 1
 2068  2407  2406 1
 2069  2409  2408 1
 2070  2410  2409 1
 2071  2411  2409 1
 2072  2412  2409 1
 2073  2413  2412 1
 2074  2415  2414 1
 2075  2416  2415 1
 2076  2417  2415 1
 2077  2418  2415 1
 2078  2419  2418 1
 2079  2421  2420 1
 2080  2422  2421 1
 2081  2423  2421 1
 2082  2424  2421 1
 2083  2425  2424 1
 2084  2427  2426 1
 2085  2428  2427 1
 2086  2429  2427 1
 2087  2430  2427 1
 2088  2431  2430 1
 2089  2433  2432 1
 2090  2434  2433 1
 2091  2435  2433 1
 2092  2436  2433 1
 2093  2437  2436 1
 2094  2439  2438 1
 2095  2440  2439 1
 2096  2441  2439 1
 2097  2442  2439 1
 2098  2443  2442 1
 2099  2445  2444 1
 2100  2446  2445 1
 2101  2447  2445 1
 2102  2448  2445 1
 2103  2449  2448 1
 2104  2451  2450 1
 2105  2452  2451 1
 2106  2453  2451 1
 2107  2454  2451 1
 2108  2455  2454 1
 2109  2457  2456 1
 2110  2458  2457 1
 2111  2459  2457 1
 2112  2460  2457 1
 2113  2461  2460 1
 2114  2463  2462 1
 2115  2464  2463 1
 2116  2465  2463 1
 2117  2466  2463 1
 2118  2467  2466 1
 2119  2469  2468 1
 2120  2470  2469 1
 2121  2471  2469 1
 2122  2472  2469 1
 2123  2473  2472 1
 2124  2475  2474 1
 2125  2476  2475 1
 2126  2477  2475 1
 2127  2478  2475 1
 2128  2479  2478 1
 2129  2481  2480 1
 2130  2482  2481 1
 2131  2483  2481 1
 2132  2484  2481 1
 2133  2485  2484 1
 2134  2487  2486 1
 2135  2488  2487 1
 2136  2489  2487 1
 2137  2490  2487 1
 2138  2491  2490 1
 2139  2493  2492 1
 2140  2494  2493 1
 2141  2495  2493 1
 2142  2496  2493 1
 2143  2497  2496 1
 2144  2499  2498 1
 2145  2500  2499 1
 2146  2501  2499 1
 2147  2502  2499 1
 2148  2503  2502 1
 2149  2505  2504 1
 2150  2506  2505 1
 2151  2507  2505 1
 2152  2508  2505 1
 2153  2509  2508 1
 2154  2511  2510 1
 2155  2512  2511 1
 2156  2513  2511 1
 2157  2514  2511 1
 2158  2515  2514 1
 2159  2517  2516 1
 2160  2518  2517 1
 2161  2519  2517 1
 2162  2520  2517 1
 2163  2521  2520 1
 2164  2523  2522 1
 2165  2524  2523 1
 2166  2525  2523 1
 2167  2526  2523 1
 2168  2527  2526 1
 2169  2529  2528 1
 2170  2530  2529 1
 2171  2531  2529 1
 2172  2532  2529 1
 2173  2533  2532 1
 2174  2535  2534 1
 2175  2536  2535 1
 2176  2537  2535 1
 2177  2538  2535 1
 2178  2539  2538 1
 2179  2541  2540 1
 2180  2542  2541 1
 2181  2543  2541 1
 2182  2544  2541 1
 2183  2545  2544 1
 2184  2547  2546 1
 2185  2548  2547 1
 2186  2549  2547 1
 2187  2550  2547 1
 2188  2551  2550 1
 2189  2553  2552 1
 2190  2554  2553 1
 2191  2555  2553 1
 2192  2556  2553 1
 2193  2557  2556 1
 2194  2559  2558 1
 2195  2560  2559 1
 2196  2561  2559 1
 2197  2562  2559 1
 2198  2563  2562 1
 2199  2565  2564 1
 2200  2566  2565 1
 2201  2567  2565 1
 2202  2568  2565 1
 2203  2569  2568 1
 2204  2571  2570 1
 2205  2572  2571 1
 2206  2573  2571 1
 2207  2574  2571 1
 2208  2575  2574 1
 2209  2577  2576 1
 2210  2578  2577 1
 2211  2579  2577 1
 2212  2580  2577 1
 2213  2581  2580 1
 2214  2583  2582 1
 2215  2584  2583 1
 2216  2585  2583 1
 2217  2586  2583 1
 2218  2587  2586 1
 2219  2589  2588 1
 2220  2590  2589 1
 2221  2591  2589 1
 2222  2592  2589 1
 2223  2593  2592 1
 2224  2595  2594 1
 2225  2596  2595 1
 2226  2597  2595 1
 2227  2598  2595 1
 2228  2599  2598 1
 2229  2601  2600 1
 2230  2602  2601 1
 2231  2603  2601 1
 2232  2604  2601 1
 2233  2605  2604 1
 2234  2607  2606 1
 2235  2608  2607 1
 2236  2609  2607 1
 2237  2610  2607 1
 2238  2611  2610 1
 2239  2613  2612 1
 2240  2614  2613 1
 2241  2615  2613 1
 2242  2616  2613 1
 2243  2617  2616 1
 2244  2619  2618 1
 2245  2620  2619 1
 2246  2621  2619 1
 2247  2622  2619 1
 2248  2623  2622 1
 2249  2625  2624 1
 2250  2626  2625 1
 2251  2627  2625 1
 2252  2628  2625 1
 2253  2629  2628 1
 2254  2631  2630 1
 2255  2632  2631 1
 2256  2633  2631 1
 2257  2634  2631 1
 2258  2635  2634 1
 2259  2637  2636 1
 2260  2638  2637 1
 2261  2639  2637 1
 2262  2640  2637 1
 2263  2641  2640 1
 2264  2643  2642 1
 2265  2644  2643 1
 2266  2645  2643 1
 2267  2646  2643 1
 2268  2647  2646 1
 2269  2649  2648 1
 2270  2650  2649 1
 2271  2651  2649 1
 2272  2652  2649 1
 2273  2653  2652 1
 2274  2655  2654 1
 2275  2656  2655 1
 2276  2657  2655 1
 2277  2658  2655 1
 2278  2659  2658 1
 2279  2661  2660 1
 2280  2662  2661 1
 2281  2663  2661 1
 2282  2664  2661 1
 2283  2665  2664 1
 2284  2667  2666 1
 2285  2668  2667 1
 2286  2669  2667 1
 2287  2670  2667 1
 2288  2671  2670 1
 2289  2673  2672 1
 2290  2674  2673 1
 2291  2675  2673 1
 2292  2676  2673 1
 2293  2677  2676 1
 2294  2679  2678 1
 2295  2680  2679 1
 2296  2681  2679 1
 2297  2682  2679 1
 2298  2683  2682 1
 2299  2685  2684 1
 2300  2686  2685 1
 2301  2687  2685 1
 2302  2688  2685 1
 2303  2689  2688 1
 2304  2691  2690 1
 2305  2692  2691 1
 2306  2693  2691 1
 2307  2694  2691 1
 2308  2695  2694 1
 2309  2697  2696 1
 2310  2698  2697 1
 2311  2699  2697 1
 2312  2700  2697 1
 2313  2701  2700 1
 2314  2703  2702 1
 2315  2704  2703 1
 2316  2705  2703 1
 2317  2706  2703 1
 2318  2707  2706 1
 2319  2709  2708 1
 2320  2710  2709 1
 2321  2711  2709 1
 2322  2712  2709 1
 2323  2713  2712 1
 2324  2715  2714 1
 2325  2716  2715 1
 2326  2717  2715 1
 2327  2718  2715 1
 2328  2719  2718 1
 2329  2721  2720 1
 2330  2722  2721 1
 2331  2723  2721 1
 2332  2724  2721 1
 2333  2725  2724 1
 2334  2727  2726 1
 2335  2728  2727 1
 2336  2729  2727 1
 2337  2730  2727 1
 2338  2731  2730 1
 2339  2733  2732 1
 2340  2734  2733 1
 2341  2735  2733 1
 2342  2736  2733 1
 2343  2737  2736 1
 2344  2739  2738 1
 2345  2740  2739 1
 2346  2741  2739 1
 2347  2742  2739 1
 2348  2743  2742 1
 2349  2745  2744 1
 2350  2746  2745 1
 2351  2747  2745 1
 2352  2748  2745 1
 2353  2749  2748 1
 2354  2751  2750 1
 2355  2752  2751 1
 2356  2753  2751 1
 2357  2754  2751 1
 2358  2755  2754 1
 2359  2757  2756 1
 2360  2758  2757 1
 2361  2759  2757 1
 2362  2760  2757 1
 2363  2761  2760 1
 2364  2763  2762 1
 2365  2764  2763 1
 2366  2765  2763 1
 2367  2766  2763 1
 2368  2767  2766 1
 2369  2769  2768 1
 2370  2770  2769 1
 2371  2771  2769 1
 2372  2772  2769 1
 2373  2773  2772 1
 2374  2775  2774 1
 2375  2776  2775 1
 2376  2777  2775 1
 2377  2778  2775 1
 2378  2779  2778 1
 2379  2781  2780 1
 2380  2782  2781 1
 2381  2783  2781 1
 2382  2784  2781 1
 2383  2785  2784 1
 2384  2787  2786 1
 2385  2788  2787 1
 2386  2789  2787 1
 2387  2790  2787 1
 2388  2791  2790 1
 2389  2793  2792 1
 2390  2794  2793 1
 2391  2795  2793 1
 2392  2796  2793 1
 2393  2797  2796 1
 2394  2799  2798 1
 2395  2800  2799 1
 2396  2801  2799 1
 2397  2802  2799 1
 2398  2803  2802 1
 2399  2805  2804 1
 2400  2806  2805 1
 2401  2807  2805 1
 2402  2808  2805 1
 2403  2809  2808 1
 2404  2811  2810 1
 2405  2812  2811 1
 2406  2813  2811 1
 2407  2814  2811 1
 2408  2815  2814 1
 2409  2817  2816 1
 2410  2818  2817 1
 2411  2819  2817 1
 2412  2820  2817 1
 2413  2821  2820 1
 2414  2823  2822 1
 2415  2824  2823 1
 2416  2825  2823 1
 2417  2826  2823 1
 2418  2827  2826 1
 2419  2829  2828 1
 2420  2830  2829 1
 2421  2831  2829 1
 2422  2832  2829 1
 2423  2833  2832 1
 2424  2835  2834 1
 2425  2836  2835 1
 2426  2837  2835 1
 2427  2838  2835 1
 2428  2839  2838 1
 2429  2841  2840 1
 2430  2842  2841 1
 2431  2843  2841 1
 2432  2844  2841 1
 2433  2845  2844 1
 2434  2847  2846 1
 2435  2848  2847 1
 2436  2849  2847 1
 2437  2850  2847 1
 2438  2851  2850 1
 2439  2853  2852 1
 2440  2854  2853 1
 2441  2855  2853 1
 2442  2856  2853 1
 2443  2857  2856 1
 2444  2859  2858 1
 2445  2860  2859 1
 2446  2861  2859 1
 2447  2862  2859 1
 2448  2863  2862 1
 2449  2865  2864 1
 2450  2866  2865 1
 2451  2867  2865 1
 2452  2868  2865 1
 2453  2869  2868 1
 2454  2871  2870 1
 2455  2872  2871 1
 2456  2873  2871 1
 2457  2874  2871 1
 2458  2875  2874 1
 2459  2877  2876 1
 2460  2878  2877 1
 2461  2879  2877 1
 2462  2880  2877 1
 2463  2881  2880 1
 2464  2883  2882 1
 2465  2884  2883 1
 2466  2885  2883 1
 2467  2886  2883 1
 2468  2887  2886 1
 2469  2889  2888 1
 2470  2890  2889 1
 2471  2891  2889 1
 2472  2892  2889 1
 2473  2893  2892 1
 2474  2895  2894 1
 2475  2896  2895 1
 2476  2897  2895 1
 2477  2898  2895 1
 2478  2899  2898 1
 2479  2901  2900 1
 2480  2902  2901 1
 2481  2903  2901 1
 2482  2904  2901 1
 2483  2905  2904 1
 2484  2907  2906 1
 2485  2908  2907 1
 2486  2909  2907 1
 2487  2910  2907 1
 2488  2911  2910 1
 2489  2913  2912 1
 2490  2914  2913 1
 2491  2915  2913 1
 2492  2916  2913 1
 2493  2917  2916 1
 2494  2919  2918 1
 2495  2920  2919 1
 2496  2921  2919 1
 2497  2922  2919 1
 2498  2923  2922 1
 2499  2925  2924 1
 2500  2926  2925 1
 2501  2927  2925 1
 2502  2928  2925 1
 2503  2929  2928 1
 2504  2931  2930 1
 2505  2932  2931 1
 2506  2933  2931 1
 2507  2934  2931 1
 2508  2935  2934 1
 2509  2937  2936 1
 2510  2938  2937 1
 2511  2939  2937 1
 2512  2940  2937 1
 2513  2941  2940 1
 2514  2943  2942 1
 2515  2944  2943 1
 2516  2945  2943 1
 2517  2946  2943 1
 2518  2947  2946 1
 2519  2949  2948 1
 2520  2950  2949 1
 2521  2951  2949 1
 2522  2952  2949 1
 2523  2953  2952 1
 2524  2955  2954 1
 2525  2956  2955 1
 2526  2957  2955 1
 2527  2958  2955 1
 2528  2959  2958 1
 2529  2961  2960 1
 2530  2962  2961 1
 2531  2963  2961 1
 2532  2964  2961 1
 2533  2965  2964 1
 2534  2967  2966 1
 2535  2968  2967 1
 2536  2969  2967 1
 2537  2970  2967 1
 2538  2971  2970 1
 2539  2973  2972 1
 2540  2974  2973 1
 2541  2975  2973 1
 2542  2976  2973 1
 2543  2977  2976 1
 2544  2979  2978 1
 2545  2980  2979 1
 2546  2981  2979 1
 2547  2982  2979 1
 2548  2983  2982 1
 2549  2985  2984 1
 2550  2986  2985 1
 2551  2987  2985 1
 2552  2988  2985 1
 2553  2989  2988 1
 2554  2991  2990 1
 2555  2992  2991 1
 2556  2993  2991 1
 2557  2994  2991 1
 2558  2995  2994 1
 2559  2997  2996 1
 2560  2998  2997 1
 2561  2999  2997 1
 2562  3000  2997 1
 2563  3001  3000 1
 2564  3003  3002 1
 2565  3004  3003 1
 2566  3005  3003 1
 2567  3006  3003 1
 2568  3007  3006 1
 2569  3009  3008 1
 2570  3010  3009 1
 2571  3011  3009 1
 2572  3012  3009 1
 2573  3013  3012 1
 2574  3015  3014 1
 2575  3016  3015 1
 2576  3017  3015 1
 2577  3018  3015 1
 2578  3019  3018 1
 2579  3021  3020 1
 2580  3022  3021 1
 2581  3023  3021 1
 2582  3024  3021 1
 2583  3025  3024 1
 2584  3027  3026 1
 2585  3028  3027 1
 2586  3029  3027 1
 2587  3030  3027 1
 2588  3031  3030 1
 2589  3033  3032 1
 2590  3034  3033 1
 2591  3035  3033 1
 2592  3036  3033 1
 2593  3037  3036 1
 2594  3039  3038 1
 2595  3040  3039 1
 2596  3041  3039 1
 2597  3042  3039 1
 2598  3043  3042 1
 2599  3045  3044 1
 2600  3046  3045 1
 2601  3047  3045 1
 2602  3048  3045 1
 2603  3049  3048 1
 2604  3051  3050 1
 2605  3052  3051 1
 2606  3053  3051 1
 2607  3054  3051 1
 2608  3055  3054 1
 2609  3057  3056 1
 2610  3058  3057 1
 2611  3059  3057 1
 2612  3060  3057 1
 2613  3061  3060 1
 2614  3063  3062 1
 2615  3064  3063 1
 2616  3065  3063 1
 2617  3066  3063 1
 2618  3067  3066 1
 2619  3069  3068 1
 2620  3070  3069 1
 2621  3071  3069 1
 2622  3072  3069 1
 2623  3073  3072 1
 2624  3075  3074 1
 2625  3076  3075 1
 2626  3077  3075 1
 2627  3078  3075 1
 2628  3079  3078 1
 2629  3081  3080 1
 2630  3082  3081 1
 2631  3083  3081 1
 2632  3084  3081 1
 2633  3085  3084 1
 2634  3087  3086 1
 2635  3088  3087 1
 2636  3089  3087 1
 2637  3090  3087 1
 2638  3091  3090 1
 2639  3093  3092 1
 2640  3094  3093 1
 2641  3095  3093 1
 2642  3096  3093 1
 2643  3097  3096 1
 2644  3099  3098 1
 2645  3100  3099 1
 2646  3101  3099 1
 2647  3102  3099 1
 2648  3103  3102 1
 2649  3105  3104 1
 2650  3106  3105 1
 2651  3107  3105 1
 2652  3108  3105 1
 2653  3109  3108 1
 2654  3111  3110 1
 2655  3112  3111 1
 2656  3113  3111 1
 2657  3114  3111 1
 2658  3115  3114 1
 2659  3117  3116 1
 2660  3118  3117 1
 2661  3119  3117 1
 2662  3120  3117 1
 2663  3121  3120 1
 2664  3123  3122 1
 2665  3124  3123 1
 2666  3125  3123 1
 2667  3126  3123 1
 2668  3127  3126 1
 2669  3129  3128 1
 2670  3130  3129 1
 2671  3131  3129 1
 2672  3132  3129 1
 2673  3133  3132 1
 2674  3135  3134 1
 2675  3136  3135 1
 2676  3137  3135 1
 2677  3138  3135 1
 2678  3139  3138 1
 2679  3141  3140 1
 2680  3142  3141 1
 2681  3143  3141 1
 2682  3144  3141 1
 2683  3145  3144 1
 2684  3147  3146 1
 2685  3148  3147 1
 2686  3149  3147 1
 2687  3150  3147 1
 2688  3151  3150 1
 2689  3153  3152 1
 2690  3154  3153 1
 2691  3155  3153 1
 2692  3156  3153 1
 2693  3157  3156 1
 2694  3159  3158 1
 2695  3160  3159 1
 2696  3161  3159 1
 2697  3162  3159 1
 2698  3163  3162 1
 2699  3165  3164 1
 2700  3166  3165 1
 2701  3167  3165 1
 2702  3168  3165 1
 2703  3169  3168 1
 2704  3171  3170 1
 2705  3172  3171 1
 2706  3173  3171 1
 2707  3174  3171 1
 2708  3175  3174 1
 2709  3177  3176 1
 2710  3178  3177 1
 2711  3179  3177 1
 2712  3180  3177 1
 2713  3181  3180 1
 2714  3183  3182 1
 2715  3184  3183 1
 2716  3185  3183 1
 2717  3186  3183 1
 2718  3187  3186 1
 2719  3189  3188 1
 2720  3190  3189 1
 2721  3191  3189 1
 2722  3192  3189 1
 2723  3193  3192 1
 2724  3195  3194 1
 2725  3196  3195 1
 2726  3197  3195 1
 2727  3198  3195 1
 2728  3199  3198 1
 2729  3201  3200 1
 2730  3202  3201 1
 2731  3203  3201 1
 2732  3204  3201 1
 2733  3205  3204 1
 2734  3207  3206 1
 2735  3208  3207 1
 2736  3209  3207 1
 2737  3210  3207 1
 2738  3211  3210 1
 2739  3213  3212 1
 2740  3214  3213 1
 2741  3215  3213 1
 2742  3216  3213 1
 2743  3217  3216 1
 2744  3219  3218 1
 2745  3220  3219 1
 2746  3221  3219 1
 2747  3222  3219 1
 2748  3223  3222 1
 2749  3225  3224 1
 2750  3226  3225 1
 2751  3227  3225 1
 2752  3228  3225 1
 2753  3229  3228 1
 2754  3231  3230 1
 2755  3232  3231 1
 2756  3233  3231 1
 2757  3234  3231 1
 2758  3235  3234 1
 2759  3237  3236 1
 2760  3238  3237 1
 2761  3239  3237 1
 2762  3240  3237 1
 2763  3241  3240 1
 2764  3243  3242 1
 2765  3244  3243 1
 2766  3245  3243 1
 2767  3246  3243 1
 2768  3247  3246 1
 2769  3249  3248 1
 2770  3250  3249 1
 2771  3251  3249 1
 2772  3252  3249 1
 2773  3253  3252 1
 2774  3255  3254 1
 2775  3256  3255 1
 2776  3257  3255 1
 2777  3258  3255 1
 2778  3259  3258 1
 2779  3261  3260 1
 2780  3262  3261 1
 2781  3263  3261 1
 2782  3264  3261 1
 2783  3265  3264 1
 2784  3267  3266 1
 2785  3268  3267 1
 2786  3269  3267 1
 2787  3270  3267 1
 2788  3271  3270 1
 2789  3273  3272 1
 2790  3274  3273 1
 2791  3275  3273 1
 2792  3276  3273 1
 2793  3277  3276 1
 2794  3279  3278 1
 2795  3280  3279 1
 2796  3281  3279 1
 2797  3282  3279 1
 2798  3283  3282 1
 2799  3285  3284 1
 2800  3286  3285 1
 2801  3287  3285 1
 2802  3288  3285 1
 2803  3289  3288 1
 2804  3291  3290 1
 2805  3292  3291 1
 2806  3293  3291 1
 2807  3294  3291 1
 2808  3295  3294 1
 2809  3297  3296 1
 2810  3298  3297 1
 2811  3299  3297 1
 2812  3300  3297 1
 2813  3301  3300 1
 2814  3303  3302 1
 2815  3304  3303 1
 2816  3305  3303 1
 2817  3306  3303 1
 2818  3307  3306 1
 2819  3309  3308 1
 2820  3310  3309 1
 2821  3311  3309 1
 2822  3312  3309 1
 2823  3313  3312 1
 2824  3315  3314 1
 2825  3316  3315 1
 2826  3317  3315 1
 2827  3318  3315 1
 2828  3319  3318 1
 2829  3321  3320 1
 2830  3322  3321 1
 2831  3323  3321 1
 2832  3324  3321 1
 2833  3325  3324 1
 2834  3327  3326 1
 2835  3328  3327 1
 2836  3329  3327 1
 2837  3330  3327 1
 2838  3331  3330 1
 2839  3333  3332 1
 2840  3334  3333 1
 2841  3335  3333 1
 2842  3336  3333 1
 2843  3337  3336 1
 2844  3339  3338 1
 2845  3340  3339 1
 2846  3341  3339 1
 2847  3342  3339 1
 2848  3343  3342 1
 2849  3345  3344 1
 2850  3346  3345 1
 2851  3347  3345 1
 2852  3348  3345 1
 2853  3349  3348 1
 2854  3351  3350 1
 2855  3352  3351 1
 2856  3353  3351 1
 2857  3354  3351 1
 2858  3355  3354 1
 2859  3357  3356 1
 2860  3358  3357 1
 2861  3359  3357 1
 2862  3360  3357 1
 2863  3361  3360 1
 2864  3363  3362 1
 2865  3364  3363 1
 2866  3365  3363 1
 2867  3366  3363 1
 2868  3367  3366 1
 2869  3369  3368 1
 2870  3370  3369 1
 2871  3371  3369 1
 2872  3372  3369 1
 2873  3373  3372 1
 2874  3375  3374 1
 2875  3376  3375 1
 2876  3377  3375 1
 2877  3378  3375 1
 2878  3379  3378 1
 2879  3381  3380 1
 2880  3382  3381 1
 2881  3383  3381 1
 2882  3384  3381 1
 2883  3385  3384 1
 2884  3387  3386 1
 2885  3388  3387 1
 2886  3389  3387 1
 2887  3390  3387 1
 2888  3391  3390 1
 2889  3393  3392 1
 2890  3394  3393 1
 2891  3395  3393 1
 2892  3396  3393 1
 2893  3397  3396 1
 2894  3399  3398 1
 2895  3400  3399 1
 2896  3401  3399 1
 2897  3402  3399 1
 2898  3403  3402 1
 2899  3405  3404 1
 2900  3406  3405 1
 2901  3407  3405 1
 2902  3408  3405 1
 2903  3409  3408 1
 2904  3411  3410 1
 2905  3412  3411 1
 2906  3413  3411 1
 2907  3414  3411 1
 2908  3415  3414 1
 2909  3417  3416 1
 2910  3418  3417 1
 2911  3419  3417 1
 2912  3420  3417 1
 2913  3421  3420 1
 2914  3423  3422 1
 2915  3424  3423 1
 2916  3425  3423 1
 2917  3426  3423 1
 2918  3427  3426 1
 2919  3429  3428 1
 2920  3430  3429 1
 2921  3431  3429 1
 2922  3432  3429 1
 2923  3433  3432 1
 2924  3435  3434 1
 2925  3436  3435 1
 2926  3437  3435 1
 2927  3438  3435 1
 2928  3439  3438 1
 2929  3441  3440 1
 2930  3442  3441 1
 2931  3443  3441 1
 2932  3444  3441 1
 2933  3445  3444 1
 2934  3447  3446 1
 2935  3448  3447 1
 2936  3449  3447 1
 2937  3450  3447 1
 2938  3451  3450 1
 2939  3453  3452 1
 2940  3454  3453 1
 2941  3455  3453 1
 2942  3456  3453 1
 2943  3457  3456 1
 2944  3459  3458 1
 2945  3460  3459 1
 2946  3461  3459 1
 2947  3462  3459 1
 2948  3463  3462 1
 2949  3465  3464 1
 2950  3466  3465 1
 2951  3467  3465 1
 2952  3468  3465 1
 2953  3469  3468 1
 2954  3471  3470 1
 2955  3472  3471 1
 2956  3473  3471 1
 2957  3474  3471 1
 2958  3475  3474 1
 2959  3477  3476 1
 2960  3478  3477 1
 2961  3479  3477 1
 2962  3480  3477 1
 2963  3481  3480 1
 2964  3483  3482 1
 2965  3484  3483 1
 2966  3485  3483 1
 2967  3486  3483 1
 2968  3487  3486 1
 2969  3489  3488 1
 2970  3490  3489 1
 2971  3491  3489 1
 2972  3492  3489 1
 2973  3493  3492 1
 2974  3495  3494 1
 2975  3496  3495 1
 2976  3497  3495 1
 2977  3498  3495 1
 2978  3499  3498 1
 2979  3501  3500 1
 2980  3502  3501 1
 2981  3503  3501 1
 2982  3504  3501 1
 2983  3505  3504 1
 2984  3507  3506 1
 2985  3508  3507 1
 2986  3509  3507 1
 2987  3510  3507 1
 2988  3511  3510 1
 2989  3513  3512 1
 2990  3514  3513 1
 2991  3515  3513 1
 2992  3516  3513 1
 2993  3517  3516 1
 2994  3519  3518 1
 2995  3520  3519 1
 2996  3521  3519 1
 2997  3522  3519 1
 2998  3523  3522 1
 2999  3525  3524 1
 3000  3526  3525 1
 3001  3527  3525 1
 3002  3528  3525 1
 3003  3529  3528 1
 3004  3531  3530 1
 3005  3532  3531 1
 3006  3533  3531 1
 3007  3534  3531 1
 3008  3535  3534 1
 3009  3537  3536 1
 3010  3538  3537 1
 3011  3539  3537 1
 3012  3540  3537 1
 3013  3541  3540 1
 3014  3543  3542 1
 3015  3544  3543 1
 3016  3545  3543 1
 3017  3546  3543 1
 3018  3547  3546 1
 3019  3549  3548 1
 3020  3550  3549 1
 3021  3551  3549 1
 3022  3552  3549 1
 3023  3553  3552 1
 3024  3555  3554 1
 3025  3556  3555 1
 3026  3557  3555 1
 3027  3558  3555 1
 3028  3559  3558 1
 3029  3561  3560 1
 3030  3562  3561 1
 3031  3563  3561 1
 3032  3564  3561 1
 3033  3565  3564 1
 3034  3567  3566 1
 3035  3568  3567 1
 3036  3569  3567 1
 3037  3570  3567 1
 3038  3571  3570 1
 3039  3573  3572 1
 3040  3574  3573 1
 3041  3575  3573 1
 3042  3576  3573 1
 3043  3577  3576 1
 3044  3579  3578 1
 3045  3580  3579 1
 3046  3581  3579 1
 3047  3582  3579 1
 3048  3583  3582 1
 3049  3585  3584 1
 3050  3586  3585 1
 3051  3587  3585 1
 3052  3588  3585 1
 3053  3589  3588 1
 3054  3591  3590 1
 3055  3592  3591 1
 3056  3593  3591 1
 3057  3594  3591 1
 3058  3595  3594 1
 3059  3597  3596 1
 3060  3598  3597 1
 3061  3599  3597 1
 3062  3600  3597 1
 3063  3601  3600 1
 3064  3603  3602 1
 3065  3604  3603 1
 3066  3605  3603 1
 3067  3606  3603 1
 3068  3607  3606 1
 3069  3609  3608 1
 3070  3610  3609 1
 3071  3611  3609 1
 3072  3612  3609 1
 3073  3613  3612 1
 3074  3615  3614 1
 3075  3616  3615 1
 3076  3617  3615 1
 3077  3618  3615 1
 3078  3619  3618 1
 3079  3621  3620 1
 3080  3622  3621 1
 3081  3623  3621 1
 3082  3624  3621 1
 3083  3625  3624 1
 3084  3627  3626 1
 3085  3628  3627 1
 3086  3629  3627 1
 3087  3630  3627 1
 3088  3631  3630 1
 3089  3633  3632 1
 3090  3634  3633 1
 3091  3635  3633 1
 3092  3636  3633 1
 3093  3637  3636 1
 3094  3639  3638 1
 3095  3640  3639 1
 3096  3641  3639 1
 3097  3642  3639 1
 3098  3643  3642 1
 3099  3645  3644 1
 3100  3646  3645 1
 3101  3647  3645 1
 3102  3648  3645 1
 3103  3649  3648 1
 3104  3651  3650 1
 3105  3652  3651 1
 3106  3653  3651 1
 3107  3654  3651 1
 3108  3655  3654 1
 3109  3657  3656 1
 3110  3658  3657 1
 3111  3659  3657 1
 3112  3660  3657 1
 3113  3661  3660 1
 3114  3663  3662 1
 3115  3664  3663 1
 3116  3665  3663 1
 3117  3666  3663 1
 3118  3667  3666 1
 3119  3669  3668 1
 3120  3670  3669 1
 3121  3671  3669 1
 3122  3672  3669 1
 3123  3673  3672 1
 3124  3675  3674 1
 3125  3676  3675 1
 3126  3677  3675 1
 3127  3678  3675 1
 3128  3679  3678 1
 3129  3681  3680 1
 3130  3682  3681 1
 3131  3683  3681 1
 3132  3684  3681 1
 3133  3685  3684 1
 3134  3687  3686 1
 3135  3688  3687 1
 3136  3689  3687 1
 3137  3690  3687 1
 3138  3691  3690 1
 3139  3693  3692 1
 3140  3694  3693 1
 3141  3695  3693 1
 3142  3696  3693 1
 3143  3697  3696 1
 3144  3699  3698 1
 3145  3700  3699 1
 3146  3701  3699 1
 3147  3702  3699 1
 3148  3703  3702 1
 3149  3705  3704 1
 3150  3706  3705 1
 3151  3707  3705 1
 3152  3708  3705 1
 3153  3709  3708 1
 3154  3711  3710 1
 3155  3712  3711 1
 3156  3713  3711 1
 3157  3714  3711 1
 3158  3715  3714 1
 3159  3717  3716 1
 3160  3718  3717 1
 3161  3719  3717 1
 3162  3720  3717 1
 3163  3721  3720 1
 3164  3723  3722 1
 3165  3724  3723 1
 3166  3725  3723 1
 3167  3726  3723 1
 3168  3727  3726 1
 3169  3729  3728 1
 3170  3730  3729 1
 3171  3731  3729 1
 3172  3732  3729 1
 3173  3733  3732 1
 3174  3735  3734 1
 3175  3736  3735 1
 3176  3737  3735 1
 3177  3738  3735 1
 3178  3739  3738 1
 3179  3741  3740 1
 3180  3742  3741 1
 3181  3743  3741 1
 3182  3744  3741 1
 3183  3745  3744 1
 3184  3747  3746 1
 3185  3748  3747 1
 3186  3749  3747 1
 3187  3750  3747 1
 3188  3751  3750 1
 3189  3753  3752 1
 3190  3754  3753 1
 3191  3755  3753 1
 3192  3756  3753 1
 3193  3757  3756 1
 3194  3759  3758 1
 3195  3760  3759 1
 3196  3761  3759 1
 3197  3762  3759 1
 3198  3763  3762 1
 3199  3765  3764 1
 3200  3766  3765 1
 3201  3767  3765 1
 3202  3768  3765 1
 3203  3769  3768 1
 3204  3771  3770 1
 3205  3772  3771 1
 3206  3773  3771 1
 3207  3774  3771 1
 3208  3775  3774 1
 3209  3777  3776 1
 3210  3778  3777 1
 3211  3779  3777 1
 3212  3780  3777 1
 3213  3781  3780 1
 3214  3783  3782 1
 3215  3784  3783 1
 3216  3785  3783 1
 3217  3786  3783 1
 3218  3787  3786 1
 3219  3789  3788 1
 3220  3790  3789 1
 3221  3791  3789 1
 3222  3792  3789 1
 3223  3793  3792 1
 3224  3795  3794 1
 3225  3796  3795 1
 3226  3797  3795 1
 3227  3798  3795 1
 3228  3799  3798 1
 3229  3801  3800 1
 3230  3802  3801 1
 3231  3803  3801 1
 3232  3804  3801 1
 3233  3805  3804 1
 3234  3807  3806 1
 3235  3808  3807 1
 3236  3809  3807 1
 3237  3810  3807 1
 3238  3811  3810 1
 3239  3813  3812 1
 3240  3814  3813 1
 3241  3815  3813 1
 3242  3816  3813 1
 3243  3817  3816 1
 3244  3819  3818 1
 3245  3820  3819 1
 3246  3821  3819 1
 3247  3822  3819 1
 3248  3823  3822 1
 3249  3825  3824 1
 3250  3826  3825 1
 3251  3827  3825 1
 3252  3828  3825 1
 3253  3829  3828 1
 3254  3831  3830 1
 3255  3832  3831 1
 3256  3833  3831 1
 3257  3834  3831 1
 3258  3835  3834 1
 3259  3837  3836 1
 3260  3838  3837 1
 3261  3839  3837 1
 3262  3840  3837 1
 3263  3841  3840 1
 3264  3843  3842 1
 3265  3844  3843 1
 3266  3845  3843 1
 3267  3846  3843 1
 3268  3847  3846 1
 3269  3849  3848 1
 3270  3850  3849 1
 3271  3851  3849 1
 3272  3852  3849 1
 3273  3853  3852 1
 3274  3855  3854 1
 3275  3856  3855 1
 3276  3857  3855 1
 3277  3858  3855 1
 3278  3859  3858 1
 3279  3861  3860 1
 3280  3862  3861 1
 3281  3863  3861 1
 3282  3864  3861 1
 3283  3865  3864 1
 3284  3867  3866 1
 3285  3868  3867 1
 3286  3869  3867 1
 3287  3870  3867 1
 3288  3871  3870 1
 3289  3873  3872 1
 3290  3874  3873 1
 3291  3875  3873 1
 3292  3876  3873 1
 3293  3877  3876 1
 3294  3879  3878 1
 3295  3880  3879 1
 3296  3881  3879 1
 3297  3882  3879 1
 3298  3883  3882 1
 3299  3885  3884 1
 3300  3886  3885 1
 3301  3887  3885 1
 3302  3888  3885 1
 3303  3889  3888 1
 3304  3891  3890 1
 3305  3892  3891 1
 3306  3893  3891 1
 3307  3894  3891 1
 3308  3895  3894 1
 3309  3897  3896 1
 3310  3898  3897 1
 3311  3899  3897 1
 3312  3900  3897 1
 3313  3901  3900 1
 3314  3903  3902 1
 3315  3904  3903 1
 3316  3905  3903 1
 3317  3906  3903 1
 3318  3907  3906 1
 3319  3909  3908 1
 3320  3910  3909 1
 3321  3911  3909 1
 3322  3912  3909 1
 3323  3913  3912 1
 3324  3915  3914 1
 3325  3916  3915 1
 3326  3917  3915 1
 3327  3918  3915 1
 3328  3919  3918 1
 3329  3921  3920 1
 3330  3922  3921 1
 3331  3923  3921 1
 3332  3924  3921 1
 3333  3925  3924 1
 3334  3927  3926 1
 3335  3928  3927 1
 3336  3929  3927 1
 3337  3930  3927 1
 3338  3931  3930 1
 3339  3933  3932 1
 3340  3934  3933 1
 3341  3935  3933 1
 3342  3936  3933 1
 3343  3937  3936 1
 3344  3939  3938 1
 3345  3940  3939 1
 3346  3941  3939 1
 3347  3942  3939 1
 3348  3943  3942 1
 3349  3945  3944 1
 3350  3946  3945 1
 3351  3947  3945 1
 3352  3948  3945 1
 3353  3949  3948 1
 3354  3951  3950 1
 3355  3952  3951 1
 3356  3953  3951 1
 3357  3954  3951 1
 3358  3955  3954 1
 3359  3957  3956 1
 3360  3958  3957 1
 3361  3959  3957 1
 3362  3960  3957 1
 3363  3961  3960 1
 3364  3963  3962 1
 3365  3964  3963 1
 3366  3965  3963 1
 3367  3966  3963 1
 3368  3967  3966 1
 3369  3969  3968 1
 3370  3970  3969 1
 3371  3971  3969 1
 3372  3972  3969 1
 3373  3973  3972 1
 3374  3975  3974 1
 3375  3976  3975 1
 3376  3977  3975 1
 3377  3978  3975 1
 3378  3979  3978 1
 3379  3981  3980 1
 3380  3982  3981 1
 3381  3983  3981 1
 3382  3984  3981 1
 3383  3985  3984 1
 3384  3987  3986 1
 3385  3988  3987 1
 3386  3989  3987 1
 3387  3990  3987 1
 3388  3991  3990 1
 3389  3993  3992 1
 3390  3994  3993 1
 3391  3995  3993 1
 3392  3996  3993 1
 3393  3997  3996 1
 3394  3999  3998 1
 3395  4000  3999 1
 3396  4001  3999 1
 3397  4002  3999 1
 3398  4003  4002 1
 3399  4005  4004 1
 3400  4006  4005 1
 3401  4007  4005 1
 3402  4008  4005 1
 3403  4009  4008 1
 3404  4011  4010 1
 3405  4012  4011 1
 3406  4013  4011 1
 3407  4014  4011 1
 3408  4015  4014 1
 3409  4017  4016 1
 3410  4018  4017 1
 3411  4019  4017 1
 3412  4020  4017 1
 3413  4021  4020 1
 3414  4023  4022 1
 3415  4024  4023 1
 3416  4025  4023 1
 3417  4026  4023 1
 3418  4027  4026 1
 3419  4029  4028 1
 3420  4030  4029 1
 3421  4031  4029 1
 3422  4032  4029 1
 3423  4033  4032 1
 3424  4035  4034 1
 3425  4036  4035 1
 3426  4037  4035 1
 3427  4038  4035 1
 3428  4039  4038 1
 3429  4041  4040 1
 3430  4042  4041 1
 3431  4043  4041 1
 3432  4044  4041 1
 3433  4045  4044 1
 3434  4047  4046 1
 3435  4048  4047 1
 3436  4049  4047 1
 3437  4050  4047 1
 3438  4051  4050 1
 3439  4053  4052 1
 3440  4054  4053 1
 3441  4055  4053 1
 3442  4056  4053 1
 3443  4057  4056 1
 3444  4059  4058 1
 3445  4060  4059 1
 3446  4061  4059 1
 3447  4062  4059 1
 3448  4063  4062 1
 3449  4065  4064 1
 3450  4066  4065 1
 3451  4067  4065 1
 3452  4068  4065 1
 3453  4069  4068 1
 3454  4071  4070 1
 3455  4072  4071 1
 3456  4073  4071 1
 3457  4074  4071 1
 3458  4075  4074 1
 3459  4077  4076 1
 3460  4078  4077 1
 3461  4079  4077 1
 3462  4080  4077 1
 3463  4081  4080 1
 3464  4083  4082 1
 3465  4084  4083 1
 3466  4085  4083 1
 3467  4086  4083 1
 3468  4087  4086 1
 3469  4089  4088 1
 3470  4090  4089 1
 3471  4091  4089 1
 3472  4092  4089 1
 3473  4093  4092 1
 3474  4095  4094 1
 3475  4096  4095 1
 3476  4097  4095 1
 3477  4098  4095 1
 3478  4099  4098 1
 3479  4101  4100 1
 3480  4102  4101 1
 3481  4103  4101 1
 3482  4104  4101 1
 3483  4105  4104 1
 3484  4107  4106 1
 3485  4108  4107 1
 3486  4109  4107 1
 3487  4110  4107 1
 3488  4111  4110 1
 3489  4113  4112 1
 3490  4114  4113 1
 3491  4115  4113 1
 3492  4116  4113 1
 3493  4117  4116 1
 3494  4119  4118 1
 3495  4120  4119 1
 3496  4121  4119 1
 3497  4122  4119 1
 3498  4123  4122 1
 3499  4125  4124 1
 3500  4126  4125 1
 3501  4127  4125 1
 3502  4128  4125 1
 3503  4129  4128 1
 3504  4131  4130 1
 3505  4132  4131 1
 3506  4133  4131 1
 3507  4134  4131 1
 3508  4135  4134 1
 3509  4137  4136 1
 3510  4138  4137 1
 3511  4139  4137 1
 3512  4140  4137 1
 3513  4141  4140 1
 3514  4143  4142 1
 3515  4144  4143 1
 3516  4145  4143 1
 3517  4146  4143 1
 3518  4147  4146 1
 3519  4149  4148 1
 3520  4150  4149 1
 3521  4151  4149 1
 3522  4152  4149 1
 3523  4153  4152 1
 3524  4155  4154 1
 3525  4156  4155 1
 3526  4157  4155 1
 3527  4158  4155 1
 3528  4159  4158 1
 3529  4161  4160 1
 3530  4162  4161 1
 3531  4163  4161 1
 3532  4164  4161 1
 3533  4165  4164 1
 3534  4167  4166 1
 3535  4168  4167 1
 3536  4169  4167 1
 3537  4170  4167 1
 3538  4171  4170 1
 3539  4173  4172 1
 3540  4174  4173 1
 3541  4175  4173 1
 3542  4176  4173 1
 3543  4177  4176 1
 3544  4179  4178 1
 3545  4180  4179 1
 3546  4181  4179 1
 3547  4182  4179 1
 3548  4183  4182 1
 3549  4185  4184 1
 3550  4186  4185 1
 3551  4187  4185 1
 3552  4188  4185 1
 3553  4189  4188 1
 3554  4191  4190 1
 3555  4192  4191 1
 3556  4193  4191 1
 3557  4194  4191 1
 3558  4195  4194 1
 3559  4197  4196 1
 3560  4198  4197 1
 3561  4199  4197 1
 3562  4200  4197 1
 3563  4201  4200 1
 3564  4203  4202 1
 3565  4204  4203 1
 3566  4205  4203 1
 3567  4206  4203 1
 3568  4207  4206 1
 3569  4209  4208 1
 3570  4210  4209 1
 3571  4211  4209 1
 3572  4212  4209 1
 3573  4213  4212 1
 3574  4215  4214 1
 3575  4216  4215 1
 3576  4217  4215 1
 3577  4218  4215 1
 3578  4219  4218 1
 3579  4221  4220 1
 3580  4222  4221 1
 3581  4223  4221 1
 3582  4224  4221 1
 3583  4225  4224 1
 3584  4227  4226 1
 3585  4228  4227 1
 3586  4229  4227 1
 3587  4230  4227 1
 3588  4231  4230 1
 3589  4233  4232 1
 3590  4234  4233 1
 3591  4235  4233 1
 3592  4236  4233 1
 3593  4237  4236 1
 3594  4239  4238 1
 3595  4240  4239 1
 3596  4241  4239 1
 3597  4242  4239 1
 3598  4243  4242 1
 3599  4245  4244 1
 3600  4246  4245 1
 3601  4247  4245 1
 3602  4248  4245 1
 3603  4249  4248 1
 3604  4251  4250 1
 3605  4252  4251 1
 3606  4253  4251 1
 3607  4254  4251 1
 3608  4255  4254 1
 3609  4257  4256 1
 3610  4258  4257 1
 3611  4259  4257 1
 3612  4260  4257 1
 3613  4261  4260 1
 3614  4263  4262 1
 3615  4264  4263 1
 3616  4265  4263 1
 3617  4266  4263 1
 3618  4267  4266 1
 3619  4269  4268 1
 3620  4270  4269 1
 3621  4271  4269 1
 3622  4272  4269 1
 3623  4273  4272 1
 3624  4275  4274 1
 3625  4276  4275 1
 3626  4277  4275 1
 3627  4278  4275 1
 3628  4279  4278 1
 3629  4281  4280 1
 3630  4282  4281 1
 3631  4283  4281 1
 3632  4284  4281 1
 3633  4285  4284 1
 3634  4287  4286 1
 3635  4288  4287 1
 3636  4289  4287 1
 3637  4290  4287 1
 3638  4291  4290 1
 3639  4293  4292 1
 3640  4294  4293 1
 3641  4295  4293 1
 3642  4296  4293 1
 3643  4297  4296 1
 3644  4299  4298 1
 3645  4300  4299 1
 3646  4301  4299 1
 3647  4302  4299 1
 3648  4303  4302 1
 3649  4305  4304 1
 3650  4306  4305 1
 3651  4307  4305 1
 3652  4308  4305 1
 3653  4309  4308 1
 3654  4311  4310 1
 3655  4312  4311 1
 3656  4313  4311 1
 3657  4314  4311 1
 3658  4315  4314 1
 3659  4317  4316 1
 3660  4318  4317 1
 3661  4319  4317 1
 3662  4320  4317 1
 3663  4321  4320 1
 3664  4323  4322 1
 3665  4324  4323 1
 3666  4325  4323 1
 3667  4326  4323 1
 3668  4327  4326 1
 3669  4329  4328 1
 3670  4330  4329 1
 3671  4331  4329 1
 3672  4332  4329 1
 3673  4333  4332 1
 3674  4335  4334 1
 3675  4336  4335 1
 3676  4337  4335 1
 3677  4338  4335 1
 3678  4339  4338 1
 3679  4341  4340 1
 3680  4342  4341 1
 3681  4343  4341 1
 3682  4344  4341 1
 3683  4345  4344 1
 3684  4347  4346 1
 3685  4348  4347 1
 3686  4349  4347 1
 3687  4350  4347 1
 3688  4351  4350 1
 3689  4353  4352 1
 3690  4354  4353 1
 3691  4355  4353 1
 3692  4356  4353 1
 3693  4357  4356 1
 3694  4359  4358 1
 3695  4360  4359 1
 3696  4361  4359 1
 3697  4362  4359 1
 3698  4363  4362 1
 3699  4365  4364 1
 3700  4366  4365 1
 3701  4367  4365 1
 3702  4368  4365 1
 3703  4369  4368 1
 3704  4371  4370 1
 3705  4372  4371 1
 3706  4373  4371 1
 3707  4374  4371 1
 3708  4375  4374 1
 3709  4377  4376 1
 3710  4378  4377 1
 3711  4379  4377 1
 3712  4380  4377 1
 3713  4381  4380 1
 3714  4383  4382 1
 3715  4384  4383 1
 3716  4385  4383 1
 3717  4386  4383 1
 3718  4387  4386 1
 3719  4389  4388 1
 3720  4390  4389 1
 3721  4391  4389 1
 3722  4392  4389 1
 3723  4393  4392 1
 3724  4395  4394 1
 3725  4396  4395 1
 3726  4397  4395 1
 3727  4398  4395 1
 3728  4399  4398 1
 3729  4401  4400 1
 3730  4402  4401 1
 3731  4403  4401 1
 3732  4404  4401 1
 3733  4405  4404 1
 3734  4407  4406 1
 3735  4408  4407 1
 3736  4409  4407 1
 3737  4410  4407 1
 3738  4411  4410 1
 3739  4413  4412 1
 3740  4414  4413 1
 3741  4415  4413 1
 3742  4416  4413 1
 3743  4417  4416 1
 3744  4419  4418 1
 3745  4420  4419 1
 3746  4421  4419 1
 3747  4422  4419 1
 3748  4423  4422 1
 3749  4425  4424 1
 3750  4426  4425 1
 3751  4427  4425 1
 3752  4428  4425 1
 3753  4429  4428 1
 3754  4431  4430 1
 3755  4432  4431 1
 3756  4433  4431 1
 3757  4434  4431 1
 3758  4435  4434 1
 3759  4437  4436 1
 3760  4438  4437 1
 3761  4439  4437 1
 3762  4440  4437 1
 3763  4441  4440 1
 3764  4443  4442 1
 3765  4444  4443 1
 3766  4445  4443 1
 3767  4446  4443 1
 3768  4447  4446 1
 3769  4449  4448 1
 3770  4450  4449 1
 3771  4451  4449 1
 3772  4452  4449 1
 3773  4453  4452 1
 3774  4455  4454 1
 3775  4456  4455 1
 3776  4457  4455 1
 3777  4458  4455 1
 3778  4459  4458 1
 3779  4461  4460 1
 3780  4462  4461 1
 3781  4463  4461 1
 3782  4464  4461 1
 3783  4465  4464 1
 3784  4467  4466 1
 3785  4468  4467 1
 3786  4469  4467 1
 3787  4470  4467 1
 3788  4471  4470 1
 3789  4473  4472 1
 3790  4474  4473 1
 3791  4475  4473 1
 3792  4476  4473 1
 3793  4477  4476 1
 3794  4479  4478 1
 3795  4480  4479 1
 3796  4481  4479 1
 3797  4482  4479 1
 3798  4483  4482 1
 3799  4485  4484 1
 3800  4486  4485 1
 3801  4487  4485 1
 3802  4488  4485 1
 3803  4489  4488 1
 3804  4491  4490 1
 3805  4492  4491 1
 3806  4493  4491 1
 3807  4494  4491 1
 3808  4495  4494 1
 3809  4497  4496 1
 3810  4498  4497 1
 3811  4499  4497 1
 3812  4500  4497 1
 3813  4501  4500 1
 3814  4503  4502 1
 3815  4504  4503 1
 3816  4505  4503 1
 3817  4506  4503 1
 3818  4507  4506 1
 3819  4509  4508 1
 3820  4510  4509 1
 3821  4511  4509 1
 3822  4512  4509 1
 3823  4513  4512 1
 3824  4515  4514 1
 3825  4516  4515 1
 3826  4517  4515 1
 3827  4518  4515 1
 3828  4519  4518 1
 3829  4521  4520 1
 3830  4522  4521 1
 3831  4523  4521 1
 3832  4524  4521 1
 3833  4525  4524 1
 3834  4527  4526 1
 3835  4528  4527 1
 3836  4529  4527 1
 3837  4530  4527 1
 3838  4531  4530 1
 3839  4533  4532 1
 3840  4534  4533 1
 3841  4535  4533 1
 3842  4536  4533 1
 3843  4537  4536 1
 3844  4539  4538 1
 3845  4540  4539 1
 3846  4541  4539 1
 3847  4542  4539 1
 3848  4543  4542 1
 3849  4545  4544 1
 3850  4546  4545 1
 3851  4547  4545 1
 3852  4548  4545 1
 3853  4549  4548 1
 3854  4551  4550 1
 3855  4552  4551 1
 3856  4553  4551 1
 3857  4554  4551 1
 3858  4555  4554 1
 3859  4557  4556 1
 3860  4558  4557 1
 3861  4559  4557 1
 3862  4560  4557 1
 3863  4561  4560 1
 3864  4563  4562 1
 3865  4564  4563 1
 3866  4565  4563 1
 3867  4566  4563 1
 3868  4567  4566 1
 3869  4569  4568 1
 3870  4570  4569 1
 3871  4571  4569 1
 3872  4572  4569 1
 3873  4573  4572 1
 3874  4575  4574 1
 3875  4576  4575 1
 3876  4577  4575 1
 3877  4578  4575 1
 3878  4579  4578 1
 3879  4581  4580 1
 3880  4582  4581 1
 3881  4583  4581 1
 3882  4584  4581 1
 3883  4585  4584 1
 3884  4587  4586 1
 3885  4588  4587 1
 3886  4589  4587 1
 3887  4590  4587 1
 3888  4591  4590 1
 3889  4593  4592 1
 3890  4594  4593 1
 3891  4595  4593 1
 3892  4596  4593 1
 3893  4597  4596 1
 3894  4599  4598 1
 3895  4600  4599 1
 3896  4601  4599 1
 3897  4602  4599 1
 3898  4603  4602 1
 3899  4605  4604 1
 3900  4606  4605 1
 3901  4607  4605 1
 3902  4608  4605 1
 3903  4609  4608 1
 3904  4611  4610 1
 3905  4612  4611 1
 3906  4613  4611 1
 3907  4614  4611 1
 3908  4615  4614 1
 3909  4617  4616 1
 3910  4618  4617 1
 3911  4619  4617 1
 3912  4620  4617 1
 3913  4621  4620 1
 3914  4623  4622 1
 3915  4624  4623 1
 3916  4625  4623 1
 3917  4626  4623 1
 3918  4627  4626 1
 3919  4629  4628 1
 3920  4630  4629 1
 3921  4631  4629 1
 3922  4632  4629 1
 3923  4633  4632 1
 3924  4635  4634 1
 3925  4636  4635 1
 3926  4637  4635 1
 3927  4638  4635 1
 3928  4639  4638 1
 3929  4641  4640 1
 3930  4642  4641 1
 3931  4643  4641 1
 3932  4644  4641 1
 3933  4645  4644 1
 3934  4647  4646 1
 3935  4648  4647 1
 3936  4649  4647 1
 3937  4650  4647 1
 3938  4651  4650 1
 3939  4653  4652 1
 3940  4654  4653 1
 3941  4655  4653 1
 3942  4656  4653 1
 3943  4657  4656 1
 3944  4659  4658 1
 3945  4660  4659 1
 3946  4661  4659 1
 3947  4662  4659 1
 3948  4663  4662 1
 3949  4665  4664 1
 3950  4666  4665 1
 3951  4667  4665 1
 3952  4668  4665 1
 3953  4669  4668 1
 3954  4671  4670 1
 3955  4672  4671 1
 3956  4673  4671 1
 3957  4674  4671 1
 3958  4675  4674 1
 3959  4677  4676 1
 3960  4678  4677 1
 3961  4679  4677 1
 3962  4680  4677 1
 3963  4681  4680 1
 3964  4683  4682 1
 3965  4684  4683 1
 3966  4685  4683 1
 3967  4686  4683 1
 3968  4687  4686 1
 3969  4689  4688 1
 3970  4690  4689 1
 3971  4691  4689 1
 3972  4692  4689 1
 3973  4693  4692 1
 3974  4695  4694 1
 3975  4696  4695 1
 3976  4697  4695 1
 3977  4698  4695 1
 3978  4699  4698 1
 3979  4701  4700 1
 3980  4702  4701 1
 3981  4703  4701 1
 3982  4704  4701 1
 3983  4705  4704 1
 3984  4707  4706 1
 3985  4708  4707 1
 3986  4709  4707 1
 3987  4710  4707 1
 3988  4711  4710 1
 3989  4713  4712 1
 3990  4714  4713 1
 3991  4715  4713 1
 3992  4716  4713 1
 3993  4717  4716 1
 3994  4719  4718 1
 3995  4720  4719 1
 3996  4721  4719 1
 3997  4722  4719 1
 3998  4723  4722 1
 3999  4725  4724 1
 4000  4726  4725 1
 4001  4727  4725 1
 4002  4728  4725 1
 4003  4729  4728 1
 4004  4731  4730 1
 4005  4732  4731 1
 4006  4733  4731 1
 4007  4734  4731 1
 4008  4735  4734 1
 4009  4737  4736 1
 4010  4738  4737 1
 4011  4739  4737 1
 4012  4740  4737 1
 4013  4741  4740 1
 4014  4743  4742 1
 4015  4744  4743 1
 4016  4745  4743 1
 4017  4746  4743 1
 4018  4747  4746 1
 4019  4749  4748 1
 4020  4750  4749 1
 4021  4751  4749 1
 4022  4752  4749 1
 4023  4753  4752 1
 4024  4755  4754 1
 4025  4756  4755 1
 4026  4757  4755 1
 4027  4758  4755 1
 4028  4759  4758 1
 4029  4761  4760 1
 4030  4762  4761 1
 4031  4763  4761 1
 4032  4764  4761 1
 4033  4765  4764 1
 4034  4767  4766 1
 4035  4768  4767 1
 4036  4769  4767 1
 4037  4770  4767 1
 4038  4771  4770 1
 4039  4773  4772 1
 4040  4774  4773 1
 4041  4775  4773 1
 4042  4776  4773 1
 4043  4777  4776 1
 4044  4779  4778 1
 4045  4780  4779 1
 4046  4781  4779 1
 4047  4782  4779 1
 4048  4783  4782 1
 4049  4785  4784 1
 4050  4786  4785 1
 4051  4787  4785 1
 4052  4788  4785 1
 4053  4789  4788 1
 4054  4791  4790 1
 4055  4792  4791 1
 4056  4793  4791 1
 4057  4794  4791 1
 4058  4795  4794 1
 4059  4797  4796 1
 4060  4798  4797 1
 4061  4799  4797 1
 4062  4800  4797 1
 4063  4801  4800 1
 4064  4803  4802 1
 4065  4804  4803 1
 4066  4805  4803 1
 4067  4806  4803 1
 4068  4807  4806 1
 4069  4809  4808 1
 4070  4810  4809 1
 4071  4811  4809 1
 4072  4812  4809 1
 4073  4813  4812 1
 4074  4815  4814 1
 4075  4816  4815 1
 4076  4817  4815 1
 4077  4818  4815 1
 4078  4819  4818 1
 4079  4821  4820 1
 4080  4822  4821 1
 4081  4823  4821 1
 4082  4824  4821 1
 4083  4825  4824 1
 4084  4827  4826 1
 4085  4828  4827 1
 4086  4829  4827 1
 4087  4830  4827 1
 4088  4831  4830 1
 4089  4833  4832 1
 4090  4834  4833 1
 4091  4835  4833 1
 4092  4836  4833 1
 4093  4837  4836 1
 4094  4839  4838 1
 4095  4840  4839 1
 4096  4841  4839 1
 4097  4842  4839 1
 4098  4843  4842 1
 4099  4845  4844 1
 4100  4846  4845 1
 4101  4847  4845 1
 4102  4848  4845 1
 4103  4849  4848 1
 4104  4851  4850 1
 4105  4852  4851 1
 4106  4853  4851 1
 4107  4854  4851 1
 4108  4855  4854 1
 4109  4857  4856 1
 4110  4858  4857 1
 4111  4859  4857 1
 4112  4860  4857 1
 4113  4861  4860 1
 4114  4863  4862 1
 4115  4864  4863 1
 4116  4865  4863 1
 4117  4866  4863 1
 4118  4867  4866 1
 4119  4869  4868 1
 4120  4870  4869 1
 4121  4871  4869 1
 4122  4872  4869 1
 4123  4873  4872 1
 4124  4875  4874 1
 4125  4876  4875 1
 4126  4877  4875 1
 4127  4878  4875 1
 4128  4879  4878 1
 4129  4881  4880 1
 4130  4882  4881 1
 4131  4883  4881 1
 4132  4884  4881 1
 4133  4885  4884 1
 4134  4887  4886 1
 4135  4888  4887 1
 4136  4889  4887 1
 4137  4890  4887 1
 4138  4891  4890 1
 4139  4893  4892 1
 4140  4894  4893 1
 4141  4895  4893 1
 4142  4896  4893 1
 4143  4897  4896 1
 4144  4899  4898 1
 4145  4900  4899 1
 4146  4901  4899 1
 4147  4902  4899 1
 4148  4903  4902 1
 4149  4905  4904 1
 4150  4906  4905 1
 4151  4907  4905 1
 4152  4908  4905 1
 4153  4909  4908 1
 4154  4911  4910 1
 4155  4912  4911 1
 4156  4913  4911 1
 4157  4914  4911 1
 4158  4915  4914 1
 4159  4917  4916 1
 4160  4918  4917 1
 4161  4919  4917 1
 4162  4920  4917 1
 4163  4921  4920 1
 4164  4923  4922 1
 4165  4924  4923 1
 4166  4925  4923 1
 4167  4926  4923 1
 4168  4927  4926 1
 4169  4929  4928 1
 4170  4930  4929 1
 4171  4931  4929 1
 4172  4932  4929 1
 4173  4933  4932 1
 4174  4935  4934 1
 4175  4936  4935 1
 4176  4937  4935 1
 4177  4938  4935 1
 4178  4939  4938 1
 4179  4941  4940 1
 4180  4942  4941 1
 4181  4943  4941 1
 4182  4944  4941 1
 4183  4945  4944 1
 4184  4947  4946 1
 4185  4948  4947 1
 4186  4949  4947 1
 4187  4950  4947 1
 4188  4951  4950 1
 4189  4953  4952 1
 4190  4954  4953 1
 4191  4955  4953 1
 4192  4956  4953 1
 4193  4957  4956 1
 4194  4959  4958 1
 4195  4960  4959 1
 4196  4961  4959 1
 4197  4962  4959 1
 4198  4963  4962 1
 4199  4965  4964 1
 4200  4966  4965 1
 4201  4967  4965 1
 4202  4968  4965 1
 4203  4969  4968 1
 4204  4971  4970 1
 4205  4972  4971 1
 4206  4973  4971 1
 4207  4974  4971 1
 4208  4975  4974 1
 4209  4977  4976 1
 4210  4978  4977 1
 4211  4979  4977 1
 4212  4980  4977 1
 4213  4981  4980 1
 4214  4983  4982 1
 4215  4984  4983 1
 4216  4985  4983 1
 4217  4986  4983 1
 4218  4987  4986 1
 4219  4989  4988 1
 4220  4990  4989 1
 4221  4991  4989 1
 4222  4992  4989 1
 4223  4993  4992 1
 4224  4995  4994 1
 4225  4996  4995 1
 4226  4997  4995 1
 4227  4998  4995 1
 4228  4999  4998 1
 4229  5001  5000 1
 4230  5002  5001 1
 4231  5003  5001 1
 4232  5004  5001 1
 4233  5005  5004 1
 4234  5007  5006 1
 4235  5008  5007 1
 4236  5009  5007 1
 4237  5010  5007 1
 4238  5011  5010 1
 4239  5013  5012 1
 4240  5014  5013 1
 4241  5015  5013 1
 4242  5016  5013 1
 4243  5017  5016 1
 4244  5019  5018 1
 4245  5020  5019 1
 4246  5021  5019 1
 4247  5022  5019 1
 4248  5023  5022 1
 4249  5025  5024 1
 4250  5026  5025 1
 4251  5027  5025 1
 4252  5028  5025 1
 4253  5029  5028 1
 4254  5031  5030 1
 4255  5032  5031 1
 4256  5033  5031 1
 4257  5034  5031 1
 4258  5035  5034 1
 4259  5037  5036 1
 4260  5038  5037 1
 4261  5039  5037 1
 4262  5040  5037 1
 4263  5041  5040 1
 4264  5043  5042 1
 4265  5044  5043 1
 4266  5045  5043 1
 4267  5046  5043 1
 4268  5047  5046 1
 4269  5049  5048 1
 4270  5050  5049 1
 4271  5051  5049 1
 4272  5052  5049 1
 4273  5053  5052 1
 4274  5055  5054 1
 4275  5056  5055 1
 4276  5057  5055 1
 4277  5058  5055 1
 4278  5059  5058 1
 4279  5061  5060 1
 4280  5062  5061 1
 4281  5063  5061 1
 4282  5064  5061 1
 4283  5065  5064 1
 4284  5067  5066 1
 4285  5068  5067 1
 4286  5069  5067 1
 4287  5070  5067 1
 4288  5071  5070 1
 4289  5073  5072 1
 4290  5074  5073 1
 4291  5075  5073 1
 4292  5076  5073 1
 4293  5077  5076 1
 4294  5079  5078 1
 4295  5080  5079 1
 4296  5081  5079 1
 4297  5082  5079 1
 4298  5083  5082 1
 4299  5085  5084 1
 4300  5086  5085 1
 4301  5087  5085 1
 4302  5088  5085 1
 4303  5089  5088 1
 4304  5091  5090 1
 4305  5092  5091 1
 4306  5093  5091 1
 4307  5094  5091 1
 4308  5095  5094 1
 4309  5097  5096 1
 4310  5098  5097 1
 4311  5099  5097 1
 4312  5100  5097 1
 4313  5101  5100 1
 4314  5103  5102 1
 4315  5104  5103 1
 4316  5105  5103 1
 4317  5106  5103 1
 4318  5107  5106 1
 4319  5109  5108 1
 4320  5110  5109 1
 4321  5111  5109 1
 4322  5112  5109 1
 4323  5113  5112 1
 4324  5115  5114 1
 4325  5116  5115 1
 4326  5117  5115 1
 4327  5118  5115 1
 4328  5119  5118 1
 4329  5121  5120 1
 4330  5122  5121 1
 4331  5123  5121 1
 4332  5124  5121 1
 4333  5125  5124 1
 4334  5127  5126 1
 4335  5128  5127 1
 4336  5129  5127 1
 4337  5130  5127 1
 4338  5131  5130 1
 4339  5133  5132 1
 4340  5134  5133 1
 4341  5135  5133 1
 4342  5136  5133 1
 4343  5137  5136 1
 4344  5139  5138 1
 4345  5140  5139 1
 4346  5141  5139 1
 4347  5142  5139 1
 4348  5143  5142 1
 4349  5145  5144 1
 4350  5146  5145 1
 4351  5147  5145 1
 4352  5148  5145 1
 4353  5149  5148 1
 4354  5151  5150 1
 4355  5152  5151 1
 4356  5153  5151 1
 4357  5154  5151 1
 4358  5155  5154 1
 4359  5157  5156 1
 4360  5158  5157 1
 4361  5159  5157 1
 4362  5160  5157 1
 4363  5161  5160 1
 4364  5163  5162 1
 4365  5164  5163 1
 4366  5165  5163 1
 4367  5166  5163 1
 4368  5167  5166 1
 4369  5169  5168 1
 4370  5170  5169 1
 4371  5171  5169 1
 4372  5172  5169 1
 4373  5173  5172 1
 4374  5175  5174 1
 4375  5176  5175 1
 4376  5177  5175 1
 4377  5178  5175 1
 4378  5179  5178 1
 4379  5181  5180 1
 4380  5182  5181 1
 4381  5183  5181 1
 4382  5184  5181 1
 4383  5185  5184 1
 4384  5187  5186 1
 4385  5188  5187 1
 4386  5189  5187 1
 4387  5190  5187 1
 4388  5191  5190 1
 4389  5193  5192 1
 4390  5194  5193 1
 4391  5195  5193 1
 4392  5196  5193 1
 4393  5197  5196 1
 4394  5199  5198 1
 4395  5200  5199 1
 4396  5201  5199 1
 4397  5202  5199 1
 4398  5203  5202 1
 4399  5205  5204 1
 4400  5206  5205 1
 4401  5207  5205 1
 4402  5208  5205 1
 4403  5209  5208 1
 4404  5211  5210 1
 4405  5212  5211 1
 4406  5213  5211 1
 4407  5214  5211 1
 4408  5215  5214 1
 4409  5217  5216 1
 4410  5218  5217 1
 4411  5219  5217 1
 4412  5220  5217 1
 4413  5221  5220 1
 4414  5223  5222 1
 4415  5224  5223 1
 4416  5225  5223 1
 4417  5226  5223 1
 4418  5227  5226 1
 4419  5229  5228 1
 4420  5230  5229 1
 4421  5231  5229 1
 4422  5232  5229 1
 4423  5233  5232 1
 4424  5235  5234 1
 4425  5236  5235 1
 4426  5237  5235 1
 4427  5238  5235 1
 4428  5239  5238 1
 4429  5241  5240 1
 4430  5242  5241 1
 4431  5243  5241 1
 4432  5244  5241 1
 4433  5245  5244 1
 4434  5247  5246 1
 4435  5248  5247 1
 4436  5249  5247 1
 4437  5250  5247 1
 4438  5251  5250 1
 4439  5253  5252 1
 4440  5254  5253 1
 4441  5255  5253 1
 4442  5256  5253 1
 4443  5257  5256 1
 4444  5259  5258 1
 4445  5260  5259 1
 4446  5261  5259 1
 4447  5262  5259 1
 4448  5263  5262 1
 4449  5265  5264 1
 4450  5266  5265 1
 4451  5267  5265 1
 4452  5268  5265 1
 4453  5269  5268 1
 4454  5271  5270 1
 4455  5272  5271 1
 4456  5273  5271 1
 4457  5274  5271 1
 4458  5275  5274 1
 4459  5277  5276 1
 4460  5278  5277 1
 4461  5279  5277 1
 4462  5280  5277 1
 4463  5281  5280 1
 4464  5283  5282 1
 4465  5284  5283 1
 4466  5285  5283 1
 4467  5286  5283 1
 4468  5287  5286 1
 4469  5289  5288 1
 4470  5290  5289 1
 4471  5291  5289 1
 4472  5292  5289 1
 4473  5293  5292 1
 4474  5295  5294 1
 4475  5296  5295 1
 4476  5297  5295 1
 4477  5298  5295 1
 4478  5299  5298 1
 4479  5301  5300 1
 4480  5302  5301 1
 4481  5303  5301 1
 4482  5304  5301 1
 4483  5305  5304 1
 4484  5307  5306 1
 4485  5308  5307 1
 4486  5309  5307 1
 4487  5310  5307 1
 4488  5311  5310 1
 4489  5313  5312 1
 4490  5314  5313 1
 4491  5315  5313 1
 4492  5316  5313 1
 4493  5317  5316 1
 4494  5319  5318 1
 4495  5320  5319 1
 4496  5321  5319 1
 4497  5322  5319 1
 4498  5323  5322 1
 4499  5325  5324 1
 4500  5326  5325 1
 4501  5327  5325 1
 4502  5328  5325 1
 4503  5329  5328 1
 4504  5331  5330 1
 4505  5332  5331 1
 4506  5333  5331 1
 4507  5334  5331 1
 4508  5335  5334 1
 4509  5337  5336 1
 4510  5338  5337 1
 4511  5339  5337 1
 4512  5340  5337 1
 4513  5341  5340 1
 4514  5343  5342 1
 4515  5344  5343 1
 4516  5345  5343 1
 4517  5346  5343 1
 4518  5347  5346 1
 4519  5349  5348 1
 4520  5350  5349 1
 4521  5351  5349 1
 4522  5352  5349 1
 4523  5353  5352 1
 4524  5355  5354 1
 4525  5356  5355 1
 4526  5357  5355 1
 4527  5358  5355 1
 4528  5359  5358 1
 4529  5361  5360 1
 4530  5362  5361 1
 4531  5363  5361 1
 4532  5364  5361 1
 4533  5365  5364 1
 4534  5367  5366 1
 4535  5368  5367 1
 4536  5369  5367 1
 4537  5370  5367 1
 4538  5371  5370 1
 4539  5373  5372 1
 4540  5374  5373 1
 4541  5375  5373 1
 4542  5376  5373 1
 4543  5377  5376 1
 4544  5379  5378 1
 4545  5380  5379 1
 4546  5381  5379 1
 4547  5382  5379 1
 4548  5383  5382 1
 4549  5385  5384 1
 4550  5386  5385 1
 4551  5387  5385 1
 4552  5388  5385 1
 4553  5389  5388 1
 4554  5391  5390 1
 4555  5392  5391 1
 4556  5393  5391 1
 4557  5394  5391 1
 4558  5395  5394 1
 4559  5397  5396 1
 4560  5398  5397 1
 4561  5399  5397 1
 4562  5400  5397 1
 4563  5401  5400 1
 4564  5403  5402 1
 4565  5404  5403 1
 4566  5405  5403 1
 4567  5406  5403 1
 4568  5407  5406 1
 4569  5409  5408 1
 4570  5410  5409 1
 4571  5411  5409 1
 4572  5412  5409 1
 4573  5413  5412 1
 4574  5415  5414 1
 4575  5416  5415 1
 4576  5417  5415 1
 4577  5418  5415 1
 4578  5419  5418 1
 4579  5421  5420 1
 4580  5422  5421 1
 4581  5423  5421 1
 4582  5424  5421 1
 4583  5425  5424 1
 4584  5427  5426 1
 4585  5428  5427 1
 4586  5429  5427 1
 4587  5430  5427 1
 4588  5431  5430 1
 4589  5433  5432 1
 4590  5434  5433 1
 4591  5435  5433 1
 4592  5436  5433 1
 4593  5437  5436 1
 4594  5439  5438 1
 4595  5440  5439 1
 4596  5441  5439 1
 4597  5442  5439 1
 4598  5443  5442 1
 4599  5445  5444 1
 4600  5446  5445 1
 4601  5447  5445 1
 4602  5448  5445 1
 4603  5449  5448 1
 4604  5451  5450 1
 4605  5452  5451 1
 4606  5453  5451 1
 4607  5454  5451 1
 4608  5455  5454 1
 4609  5457  5456 1
 4610  5458  5457 1
 4611  5459  5457 1
 4612  5460  5457 1
 4613  5461  5460 1
 4614  5463  5462 1
 4615  5464  5463 1
 4616  5465  5463 1
 4617  5466  5463 1
 4618  5467  5466 1
 4619  5469  5468 1
 4620  5470  5469 1
 4621  5471  5469 1
 4622  5472  5469 1
 4623  5473  5472 1
 4624  5475  5474 1
 4625  5476  5475 1
 4626  5477  5475 1
 4627  5478  5475 1
 4628  5479  5478 1
 4629  5481  5480 1
 4630  5482  5481 1
 4631  5483  5481 1
 4632  5484  5481 1
 4633  5485  5484 1
 4634  5487  5486 1
 4635  5488  5487 1
 4636  5489  5487 1
 4637  5490  5487 1
 4638  5491  5490 1
 4639  5493  5492 1
 4640  5494  5493 1
 4641  5495  5493 1
 4642  5496  5493 1
 4643  5497  5496 1
 4644  5499  5498 1
 4645  5500  5499 1
 4646  5501  5499 1
 4647  5502  5499 1
 4648  5503  5502 1
 4649  5505  5504 1
 4650  5506  5505 1
 4651  5507  5505 1
 4652  5508  5505 1
 4653  5509  5508 1
 4654  5511  5510 1
 4655  5512  5511 1
 4656  5513  5511 1
 4657  5514  5511 1
 4658  5515  5514 1
 4659  5517  5516 1
 4660  5518  5517 1
 4661  5519  5517 1
 4662  5520  5517 1
 4663  5521  5520 1
 4664  5523  5522 1
 4665  5524  5523 1
 4666  5525  5523 1
 4667  5526  5523 1
 4668  5527  5526 1
 4669  5529  5528 1
 4670  5530  5529 1
 4671  5531  5529 1
 4672  5532  5529 1
 4673  5533  5532 1
 4674  5535  5534 1
 4675  5536  5535 1
 4676  5537  5535 1
 4677  5538  5535 1
 4678  5539  5538 1
 4679  5541  5540 1
 4680  5542  5541 1
 4681  5543  5541 1
 4682  5544  5541 1
 4683  5545  5544 1
 4684  5547  5546 1
 4685  5548  5547 1
 4686  5549  5547 1
 4687  5550  5547 1
 4688  5551  5550 1
 4689  5553  5552 1
 4690  5554  5553 1
 4691  5555  5553 1
 4692  5556  5553 1
 4693  5557  5556 1
 4694  5559  5558 1
 4695  5560  5559 1
 4696  5561  5559 1
 4697  5562  5559 1
 4698  5563  5562 1
 4699  5565  5564 1
 4700  5566  5565 1
 4701  5567  5565 1
 4702  5568  5565 1
 4703  5569  5568 1
 4704  5571  5570 1
 4705  5572  5571 1
 4706  5573  5571 1
 4707  5574  5571 1
 4708  5575  5574 1
 4709  5577  5576 1
 4710  5578  5577 1
 4711  5579  5577 1
 4712  5580  5577 1
 4713  5581  5580 1
 4714  5583  5582 1
 4715  5584  5583 1
 4716  5585  5583 1
 4717  5586  5583 1
 4718  5587  5586 1
 4719  5589  5588 1
 4720  5590  5589 1
 4721  5591  5589 1
 4722  5592  5589 1
 4723  5593  5592 1
 4724  5595  5594 1
 4725  5596  5595 1
 4726  5597  5595 1
 4727  5598  5595 1
 4728  5599  5598 1
 4729  5601  5600 1
 4730  5602  5601 1
 4731  5603  5601 1
 4732  5604  5601 1
 4733  5605  5604 1
 4734  5607  5606 1
 4735  5608  5607 1
 4736  5609  5607 1
 4737  5610  5607 1
 4738  5611  5610 1
 4739  5613  5612 1
 4740  5614  5613 1
 4741  5615  5613 1
 4742  5616  5613 1
 4743  5617  5616 1
 4744  5619  5618 1
 4745  5620  5619 1
 4746  5621  5619 1
 4747  5622  5619 1
 4748  5623  5622 1
 4749  5625  5624 1
 4750  5626  5625 1
 4751  5627  5625 1
 4752  5628  5625 1
 4753  5629  5628 1
 4754  5631  5630 1
 4755  5632  5631 1
 4756  5633  5631 1
 4757  5634  5631 1
 4758  5635  5634 1
 4759  5637  5636 1
 4760  5638  5637 1
 4761  5639  5637 1
 4762  5640  5637 1
 4763  5641  5640 1
 4764  5643  5642 1
 4765  5644  5643 1
 4766  5645  5643 1
 4767  5646  5643 1
 4768  5647  5646 1
 4769  5649  5648 1
 4770  5650  5649 1
 4771  5651  5649 1
 4772  5652  5649 1
 4773  5653  5652 1
 4774  5655  5654 1
 4775  5656  5655 1
 4776  5657  5655 1
 4777  5658  5655 1
 4778  5659  5658 1
 4779  5661  5660 1
 4780  5662  5661 1
 4781  5663  5661 1
 4782  5664  5661 1
 4783  5665  5664 1
 4784  5667  5666 1
 4785  5668  5667 1
 4786  5669  5667 1
 4787  5670  5667 1
 4788  5671  5670 1
 4789  5673  5672 1
 4790  5674  5673 1
 4791  5675  5673 1
 4792  5676  5673 1
 4793  5677  5676 1
 4794  5679  5678 1
 4795  5680  5679 1
 4796  5681  5679 1
 4797  5682  5679 1
 4798  5683  5682 1
 4799  5685  5684 1
 4800  5686  5685 1
 4801  5687  5685 1
 4802  5688  5685 1
 4803  5689  5688 1
 4804  5691  5690 1
 4805  5692  5691 1
 4806  5693  5691 1
 4807  5694  5691 1
 4808  5695  5694 1
 4809  5697  5696 1
 4810  5698  5697 1
 4811  5699  5697 1
 4812  5700  5697 1
 4813  5701  5700 1
 4814  5703  5702 1
 4815  5704  5703 1
 4816  5705  5703 1
 4817  5706  5703 1
 4818  5707  5706 1
 4819  5709  5708 1
 4820  5710  5709 1
 4821  5711  5709 1
 4822  5712  5709 1
 4823  5713  5712 1
 4824  5715  5714 1
 4825  5716  5715 1
 4826  5717  5715 1
 4827  5718  5715 1
 4828  5719  5718 1
 4829  5721  5720 1
 4830  5722  5721 1
 4831  5723  5721 1
 4832  5724  5721 1
 4833  5725  5724 1
 4834  5727  5726 1
 4835  5728  5727 1
 4836  5729  5727 1
 4837  5730  5727 1
 4838  5731  5730 1
 4839  5733  5732 1
 4840  5734  5733 1
 4841  5735  5733 1
 4842  5736  5733 1
 4843  5737  5736 1
 4844  5739  5738 1
 4845  5740  5739 1
 4846  5741  5739 1
 4847  5742  5739 1
 4848  5743  5742 1
 4849  5745  5744 1
 4850  5746  5745 1
 4851  5747  5745 1
 4852  5748  5745 1
 4853  5749  5748 1
 4854  5751  5750 1
 4855  5752  5751 1
 4856  5753  5751 1
 4857  5754  5751 1
 4858  5755  5754 1
 4859  5757  5756 1
 4860  5758  5757 1
 4861  5759  5757 1
 4862  5760  5757 1
 4863  5761  5760 1
 4864  5763  5762 1
 4865  5764  5763 1
 4866  5765  5763 1
 4867  5766  5763 1
 4868  5767  5766 1
 4869  5769  5768 1
 4870  5770  5769 1
 4871  5771  5769 1
 4872  5772  5769 1
 4873  5773  5772 1
 4874  5775  5774 1
 4875  5776  5775 1
 4876  5777  5775 1
 4877  5778  5775 1
 4878  5779  5778 1
 4879  5781  5780 1
 4880  5782  5781 1
 4881  5783  5781 1
 4882  5784  5781 1
 4883  5785  5784 1
 4884  5787  5786 1
 4885  5788  5787 1
 4886  5789  5787 1
 4887  5790  5787 1
 4888  5791  5790 1
 4889  5793  5792 1
 4890  5794  5793 1
 4891  5795  5793 1
 4892  5796  5793 1
 4893  5797  5796 1
 4894  5799  5798 1
 4895  5800  5799 1
 4896  5801  5799 1
 4897  5802  5799 1
 4898  5803  5802 1
 4899  5805  5804 1
 4900  5806  5805 1
 4901  5807  5805 1
 4902  5808  5805 1
 4903  5809  5808 1
 4904  5811  5810 1
 4905  5812  5811 1
 4906  5813  5811 1
 4907  5814  5811 1
 4908  5815  5814 1
 4909  5817  5816 1
 4910  5818  5817 1
 4911  5819  5817 1
 4912  5820  5817 1
 4913  5821  5820 1
 4914  5823  5822 1
 4915  5824  5823 1
 4916  5825  5823 1
 4917  5826  5823 1
 4918  5827  5826 1
 4919  5829  5828 1
 4920  5830  5829 1
 4921  5831  5829 1
 4922  5832  5829 1
 4923  5833  5832 1
 4924  5835  5834 1
 4925  5836  5835 1
 4926  5837  5835 1
 4927  5838  5835 1
 4928  5839  5838 1
 4929  5841  5840 1
 4930  5842  5841 1
 4931  5843  5841 1
 4932  5844  5841 1
 4933  5845  5844 1
 4934  5847  5846 1
 4935  5848  5847 1
 4936  5849  5847 1
 4937  5850  5847 1
 4938  5851  5850 1
 4939  5853  5852 1
 4940  5854  5853 1
 4941  5855  5853 1
 4942  5856  5853 1
 4943  5857  5856 1
 4944  5859  5858 1
 4945  5860  5859 1
 4946  5861  5859 1
 4947  5862  5859 1
 4948  5863  5862 1
 4949  5865  5864 1
 4950  5866  5865 1
 4951  5867  5865 1
 4952  5868  5865 1
 4953  5869  5868 1
 4954  5871  5870 1
 4955  5872  5871 1
 4956  5873  5871 1
 4957  5874  5871 1
 4958  5875  5874 1
 4959  5877  5876 1
 4960  5878  5877 1
 4961  5879  5877 1
 4962  5880  5877 1
 4963  5881  5880 1
 4964  5883  5882 1
 4965  5884  5883 1
 4966  5885  5883 1
 4967  5886  5883 1
 4968  5887  5886 1
 4969  5889  5888 1
 4970  5890  5889 1
 4971  5891  5889 1
 4972  5892  5889 1
 4973  5893  5892 1
 4974  5895  5894 1
 4975  5896  5895 1
 4976  5897  5895 1
 4977  5898  5895 1
 4978  5899  5898 1
 4979  5901  5900 1
 4980  5902  5901 1
 4981  5903  5901 1
 4982  5904  5901 1
 4983  5905  5904 1
 4984  5907  5906 1
 4985  5908  5907 1
 4986  5909  5907 1
 4987  5910  5907 1
 4988  5911  5910 1
 4989  5913  5912 1
 4990  5914  5913 1
 4991  5915  5913 1
 4992  5916  5913 1
 4993  5917  5916 1
 4994  5919  5918 1
 4995  5920  5919 1
 4996  5921  5919 1
 4997  5922  5919 1
 4998  5923  5922 1
 4999  5925  5924 1
 5000  5926  5925 1
 5001  5927  5925 1
 5002  5928  5925 1
 5003  5929  5928 1
 5004  5931  5930 1
 5005  5932  5931 1
 5006  5933  5931 1
 5007  5934  5931 1
 5008  5935  5934 1
 5009  5937  5936 1
 5010  5938  5937 1
 5011  5939  5937 1
 5012  5940  5937 1
 5013  5941  5940 1
 5014  5943  5942 1
 5015  5944  5943 1
 5016  5945  5943 1
 5017  5946  5943 1
 5018  5947  5946 1
 5019  5949  5948 1
 5020  5950  5949 1
 5021  5951  5949 1
 5022  5952  5949 1
 5023  5953  5952 1
 5024  5955  5954 1
 5025  5956  5955 1
 5026  5957  5955 1
 5027  5958  5955 1
 5028  5959  5958 1
 5029  5961  5960 1
 5030  5962  5961 1
 5031  5963  5961 1
 5032  5964  5961 1
 5033  5965  5964 1
 5034  5967  5966 1
 5035  5968  5967 1
 5036  5969  5967 1
 5037  5970  5967 1
 5038  5971  5970 1
 5039  5973  5972 1
 5040  5974  5973 1
 5041  5975  5973 1
 5042  5976  5973 1
 5043  5977  5976 1
 5044  5979  5978 1
 5045  5980  5979 1
 5046  5981  5979 1
 5047  5982  5979 1
 5048  5983  5982 1
 5049  5985  5984 1
 5050  5986  5985 1
 5051  5987  5985 1
 5052  5988  5985 1
 5053  5989  5988 1
 5054  5991  5990 1
 5055  5992  5991 1
 5056  5993  5991 1
 5057  5994  5991 1
 5058  5995  5994 1
 5059  5997  5996 1
 5060  5998  5997 1
 5061  5999  5997 1
 5062  6000  5997 1
 5063  6001  6000 1
 5064  6003  6002 1
 5065  6004  6003 1
 5066  6005  6003 1
 5067  6006  6003 1
 5068  6007  6006 1
 5069  6009  6008 1
 5070  6010  6009 1
 5071  6011  6009 1
 5072  6012  6009 1
 5073  6013  6012 1
 5074  6015  6014 1
 5075  6016  6015 1
 5076  6017  6015 1
 5077  6018  6015 1
 5078  6019  6018 1
 5079  6021  6020 1
 5080  6022  6021 1
 5081  6023  6021 1
 5082  6024  6021 1
 5083  6025  6024 1
 5084  6027  6026 1
 5085  6028  6027 1
 5086  6029  6027 1
 5087  6030  6027 1
 5088  6031  6030 1
 5089  6033  6032 1
 5090  6034  6033 1
 5091  6035  6033 1
 5092  6036  6033 1
 5093  6037  6036 1
 5094  6039  6038 1
 5095  6040  6039 1
 5096  6041  6039 1
 5097  6042  6039 1
 5098  6043  6042 1
 5099  6045  6044 1
 5100  6046  6045 1
 5101  6047  6045 1
 5102  6048  6045 1
 5103  6049  6048 1
 5104  6051  6050 1
 5105  6052  6051 1
 5106  6053  6051 1
 5107  6054  6051 1
 5108  6055  6054 1
 5109  6057  6056 1
 5110  6058  6057 1
 5111  6059  6057 1
 5112  6060  6057 1
 5113  6061  6060 1
 5114  6063  6062 1
 5115  6064  6063 1
 5116  6065  6063 1
 5117  6066  6063 1
 5118  6067  6066 1
 5119  6069  6068 1
 5120  6070  6069 1
 5121  6071  6069 1
 5122  6072  6069 1
 5123  6073  6072 1
 5124  6075  6074 1
 5125  6076  6075 1
 5126  6077  6075 1
 5127  6078  6075 1
 5128  6079  6078 1
 5129  6081  6080 1
 5130  6082  6081 1
 5131  6083  6081 1
 5132  6084  6081 1
 5133  6085  6084 1
 5134  6087  6086 1
 5135  6088  6087 1
 5136  6089  6087 1
 5137  6090  6087 1
 5138  6091  6090 1
 5139  6093  6092 1
 5140  6094  6093 1
 5141  6095  6093 1
 5142  6096  6093 1
 5143  6097  6096 1
 5144  6099  6098 1
 5145  6100  6099 1
 5146  6101  6099 1
 5147  6102  6099 1
 5148  6103  6102 1
 5149  6105  6104 1
 5150  6106  6105 1
 5151  6107  6105 1
 5152  6108  6105 1
 5153  6109  6108 1
 5154  6111  6110 1
 5155  6112  6111 1
 5156  6113  6111 1
 5157  6114  6111 1
 5158  6115  6114 1
 5159  6117  6116 1
 5160  6118  6117 1
 5161  6119  6117 1
 5162  6120  6117 1
 5163  6121  6120 1
 5164  6123  6122 1
 5165  6124  6123 1
 5166  6125  6123 1
 5167  6126  6123 1
 5168  6127  6126 1
 5169  6129  6128 1
 5170  6130  6129 1
 5171  6131  6129 1
 5172  6132  6129 1
 5173  6133  6132 1
 5174  6135  6134 1
 5175  6136  6135 1
 5176  6137  6135 1
 5177  6138  6135 1
 5178  6139  6138 1
 5179  6141  6140 1
 5180  6142  6141 1
 5181  6143  6141 1
 5182  6144  6141 1
 5183  6145  6144 1
 5184  6147  6146 1
 5185  6148  6147 1
 5186  6149  6147 1
 5187  6150  6147 1
 5188  6151  6150 1
 5189  6153  6152 1
 5190  6154  6153 1
 5191  6155  6153 1
 5192  6156  6153 1
 5193  6157  6156 1
 5194  6159  6158 1
 5195  6160  6159 1
 5196  6161  6159 1
 5197  6162  6159 1
 5198  6163  6162 1
 5199  6165  6164 1
 5200  6166  6165 1
 5201  6167  6165 1
 5202  6168  6165 1
 5203  6169  6168 1
 5204  6171  6170 1
 5205  6172  6171 1
 5206  6173  6171 1
 5207  6174  6171 1
 5208  6175  6174 1
 5209  6177  6176 1
 5210  6178  6177 1
 5211  6179  6177 1
 5212  6180  6177 1
 5213  6181  6180 1
 5214  6183  6182 1
 5215  6184  6183 1
 5216  6185  6183 1
 5217  6186  6183 1
 5218  6187  6186 1
 5219  6189  6188 1
 5220  6190  6189 1
 5221  6191  6189 1
 5222  6192  6189 1
 5223  6193  6192 1
 5224  6195  6194 1
 5225  6196  6195 1
 5226  6197  6195 1
 5227  6198  6195 1
 5228  6199  6198 1
 5229  6201  6200 1
 5230  6202  6201 1
 5231  6203  6201 1
 5232  6204  6201 1
 5233  6205  6204 1
 5234  6207  6206 1
 5235  6208  6207 1
 5236  6209  6207 1
 5237  6210  6207 1
 5238  6211  6210 1
 5239  6213  6212 1
 5240  6214  6213 1
 5241  6215  6213 1
 5242  6216  6213 1
 5243  6217  6216 1
 5244  6219  6218 1
 5245  6220  6219 1
 5246  6221  6219 1
 5247  6222  6219 1
 5248  6223  6222 1
 5249  6225  6224 1
 5250  6226  6225 1
 5251  6227  6225 1
 5252  6228  6225 1
 5253  6229  6228 1
 5254  6231  6230 1
 5255  6232  6231 1
 5256  6233  6231 1
 5257  6234  6231 1
 5258  6235  6234 1
 5259  6237  6236 1
 5260  6238  6237 1
 5261  6239  6237 1
 5262  6240  6237 1
 5263  6241  6240 1
 5264  6243  6242 1
 5265  6244  6243 1
 5266  6245  6243 1
 5267  6246  6243 1
 5268  6247  6246 1
 5269  6249  6248 1
 5270  6250  6249 1
 5271  6251  6249 1
 5272  6252  6249 1
 5273  6253  6252 1
 5274  6255  6254 1
 5275  6256  6255 1
 5276  6257  6255 1
 5277  6258  6255 1
 5278  6259  6258 1
 5279  6261  6260 1
 5280  6262  6261 1
 5281  6263  6261 1
 5282  6264  6261 1
 5283  6265  6264 1
 5284  6267  6266 1
 5285  6268  6267 1
 5286  6269  6267 1
 5287  6270  6267 1
 5288  6271  6270 1
 5289  6273  6272 1
 5290  6274  6273 1
 5291  6275  6273 1
 5292  6276  6273 1
 5293  6277  6276 1
 5294  6279  6278 1
 5295  6280  6279 1
 5296  6281  6279 1
 5297  6282  6279 1
 5298  6283  6282 1
 5299  6285  6284 1
 5300  6286  6285 1
 5301  6287  6285 1
 5302  6288  6285 1
 5303  6289  6288 1
 5304  6291  6290 1
 5305  6292  6291 1
 5306  6293  6291 1
 5307  6294  6291 1
 5308  6295  6294 1
 5309  6297  6296 1
 5310  6298  6297 1
 5311  6299  6297 1
 5312  6300  6297 1
 5313  6301  6300 1
 5314  6303  6302 1
 5315  6304  6303 1
 5316  6305  6303 1
 5317  6306  6303 1
 5318  6307  6306 1
 5319  6309  6308 1
 5320  6310  6309 1
 5321  6311  6309 1
 5322  6312  6309 1
 5323  6313  6312 1
 5324  6315  6314 1
 5325  6316  6315 1
 5326  6317  6315 1
 5327  6318  6315 1
 5328  6319  6318 1
 5329  6321  6320 1
 5330  6322  6321 1
 5331  6323  6321 1
 5332  6324  6321 1
 5333  6325  6324 1
 5334  6327  6326 1
 5335  6328  6327 1
 5336  6329  6327 1
 5337  6330  6327 1
 5338  6331  6330 1
 5339  6333  6332 1
 5340  6334  6333 1
 5341  6335  6333 1
 5342  6336  6333 1
 5343  6337  6336 1
 5344  6339  6338 1
 5345  6340  6339 1
 5346  6341  6339 1
 5347  6342  6339 1
 5348  6343  6342 1
 5349  6345  6344 1
 5350  6346  6345 1
 5351  6347  6345 1
 5352  6348  6345 1
 5353  6349  6348 1
 5354  6351  6350 1
 5355  6352  6351 1
 5356  6353  6351 1
 5357  6354  6351 1
 5358  6355  6354 1
 5359  6357  6356 1
 5360  6358  6357 1
 5361  6359  6357 1
 5362  6360  6357 1
 5363  6361  6360 1
 5364  6363  6362 1
 5365  6364  6363 1
 5366  6365  6363 1
 5367  6366  6363 1
 5368  6367  6366 1
 5369  6369  6368 1
 5370  6370  6369 1
 5371  6371  6369 1
 5372  6372  6369 1
 5373  6373  6372 1
 5374  6375  6374 1
 5375  6376  6375 1
 5376  6377  6375 1
 5377  6378  6375 1
 5378  6379  6378 1
 5379  6381  6380 1
 5380  6382  6381 1
 5381  6383  6381 1
 5382  6384  6381 1
 5383  6385  6384 1
 5384  6387  6386 1
 5385  6388  6387 1
 5386  6389  6387 1
 5387  6390  6387 1
 5388  6391  6390 1
 5389  6393  6392 1
 5390  6394  6393 1
 5391  6395  6393 1
 5392  6396  6393 1
 5393  6397  6396 1
 5394  6399  6398 1
 5395  6400  6399 1
 5396  6401  6399 1
 5397  6402  6399 1
 5398  6403  6402 1
 5399  6405  6404 1
 5400  6406  6405 1
 5401  6407  6405 1
 5402  6408  6405 1
 5403  6409  6408 1
 5404  6411  6410 1
 5405  6412  6411 1
 5406  6413  6411 1
 5407  6414  6411 1
 5408  6415  6414 1
 5409  6417  6416 1
 5410  6418  6417 1
 5411  6419  6417 1
 5412  6420  6417 1
 5413  6421  6420 1
 5414  6423  6422 1
 5415  6424  6423 1
 5416  6425  6423 1
 5417  6426  6423 1
 5418  6427  6426 1
 5419  6429  6428 1
 5420  6430  6429 1
 5421  6431  6429 1
 5422  6432  6429 1
 5423  6433  6432 1
 5424  6435  6434 1
 5425  6436  6435 1
 5426  6437  6435 1
 5427  6438  6435 1
 5428  6439  6438 1
 5429  6441  6440 1
 5430  6442  6441 1
 5431  6443  6441 1
 5432  6444  6441 1
 5433  6445  6444 1
 5434  6447  6446 1
 5435  6448  6447 1
 5436  6449  6447 1
 5437  6450  6447 1
 5438  6451  6450 1
 5439  6453  6452 1
 5440  6454  6453 1
 5441  6455  6453 1
 5442  6456  6453 1
 5443  6457  6456 1
 5444  6459  6458 1
 5445  6460  6459 1
 5446  6461  6459 1
 5447  6462  6459 1
 5448  6463  6462 1
 5449  6465  6464 1
 5450  6466  6465 1
 5451  6467  6465 1
 5452  6468  6465 1
 5453  6469  6468 1
 5454  6471  6470 1
 5455  6472  6471 1
 5456  6473  6471 1
 5457  6474  6471 1
 5458  6475  6474 1
 5459  6477  6476 1
 5460  6478  6477 1
 5461  6479  6477 1
 5462  6480  6477 1
 5463  6481  6480 1
 5464  6483  6482 1
 5465  6484  6483 1
 5466  6485  6483 1
 5467  6486  6483 1
 5468  6487  6486 1
 5469  6489  6488 1
 5470  6490  6489 1
 5471  6491  6489 1
 5472  6492  6489 1
 5473  6493  6492 1
 5474  6495  6494 1
 5475  6496  6495 1
 5476  6497  6495 1
 5477  6498  6495 1
 5478  6499  6498 1
 5479  6501  6500 1
 5480  6502  6501 1
 5481  6503  6501 1
 5482  6504  6501 1
 5483  6505  6504 1
 5484  6507  6506 1
 5485  6508  6507 1
 5486  6509  6507 1
 5487  6510  6507 1
 5488  6511  6510 1
 5489  6513  6512 1
 5490  6514  6513 1
 5491  6515  6513 1
 5492  6516  6513 1
 5493  6517  6516 1
 5494  6519  6518 1
 5495  6520  6519 1
 5496  6521  6519 1
 5497  6522  6519 1
 5498  6523  6522 1
 5499  6525  6524 1
 5500  6526  6525 1
 5501  6527  6525 1
 5502  6528  6525 1
 5503  6529  6528 1
 5504  6531  6530 1
 5505  6532  6531 1
 5506  6533  6531 1
 5507  6534  6531 1
 5508  6535  6534 1
 5509  6537  6536 1
 5510  6538  6537 1
 5511  6539  6537 1
 5512  6540  6537 1
 5513  6541  6540 1
 5514  6543  6542 1
 5515  6544  6543 1
 5516  6545  6543 1
 5517  6546  6543 1
 5518  6547  6546 1
 5519  6549  6548 1
 5520  6550  6549 1
 5521  6551  6549 1
 5522  6552  6549 1
 5523  6553  6552 1
 5524  6555  6554 1
 5525  6556  6555 1
 5526  6557  6555 1
 5527  6558  6555 1
 5528  6559  6558 1
 5529  6561  6560 1
 5530  6562  6561 1
 5531  6563  6561 1
 5532  6564  6561 1
 5533  6565  6564 1
 5534  6567  6566 1
 5535  6568  6567 1
 5536  6569  6567 1
 5537  6570  6567 1
 5538  6571  6570 1
 5539  6573  6572 1
 5540  6574  6573 1
 5541  6575  6573 1
 5542  6576  6573 1
 5543  6577  6576 1
 5544  6579  6578 1
 5545  6580  6579 1
 5546  6581  6579 1
 5547  6582  6579 1
 5548  6583  6582 1
 5549  6585  6584 1
 5550  6586  6585 1
 5551  6587  6585 1
 5552  6588  6585 1
 5553  6589  6588 1
 5554  6591  6590 1
 5555  6592  6591 1
 5556  6593  6591 1
 5557  6594  6591 1
 5558  6595  6594 1
 5559  6597  6596 1
 5560  6598  6597 1
 5561  6599  6597 1
 5562  6600  6597 1
 5563  6601  6600 1
 5564  6603  6602 1
 5565  6604  6603 1
 5566  6605  6603 1
 5567  6606  6603 1
 5568  6607  6606 1
 5569  6609  6608 1
 5570  6610  6609 1
 5571  6611  6609 1
 5572  6612  6609 1
 5573  6613  6612 1
 5574  6615  6614 1
 5575  6616  6615 1
 5576  6617  6615 1
 5577  6618  6615 1
 5578  6619  6618 1
 5579  6621  6620 1
 5580  6622  6621 1
 5581  6623  6621 1
 5582  6624  6621 1
 5583  6625  6624 1
 5584  6627  6626 1
 5585  6628  6627 1
 5586  6629  6627 1
 5587  6630  6627 1
 5588  6631  6630 1
 5589  6633  6632 1
 5590  6634  6633 1
 5591  6635  6633 1
 5592  6636  6633 1
 5593  6637  6636 1
 5594  6639  6638 1
 5595  6640  6639 1
 5596  6641  6639 1
 5597  6642  6639 1
 5598  6643  6642 1
 5599  6645  6644 1
 5600  6646  6645 1
 5601  6647  6645 1
 5602  6648  6645 1
 5603  6649  6648 1
 5604  6651  6650 1
 5605  6652  6651 1
 5606  6653  6651 1
 5607  6654  6651 1
 5608  6655  6654 1
 5609  6657  6656 1
 5610  6658  6657 1
 5611  6659  6657 1
 5612  6660  6657 1
 5613  6661  6660 1
 5614  6663  6662 1
 5615  6664  6663 1
 5616  6665  6663 1
 5617  6666  6663 1
 5618  6667  6666 1
 5619  6669  6668 1
 5620  6670  6669 1
 5621  6671  6669 1
 5622  6672  6669 1
 5623  6673  6672 1
 5624  6675  6674 1
 5625  6676  6675 1
 5626  6677  6675 1
 5627  6678  6675 1
 5628  6679  6678 1
 5629  6681  6680 1
 5630  6682  6681 1
 5631  6683  6681 1
 5632  6684  6681 1
 5633  6685  6684 1
 5634  6687  6686 1
 5635  6688  6687 1
 5636  6689  6687 1
 5637  6690  6687 1
 5638  6691  6690 1
 5639  6693  6692 1
 5640  6694  6693 1
 5641  6695  6693 1
 5642  6696  6693 1
 5643  6697  6696 1
 5644  6699  6698 1
 5645  6700  6699 1
 5646  6701  6699 1
 5647  6702  6699 1
 5648  6703  6702 1
 5649  6705  6704 1
 5650  6706  6705 1
 5651  6707  6705 1
 5652  6708  6705 1
 5653  6709  6708 1
 5654  6711  6710 1
 5655  6712  6711 1
 5656  6713  6711 1
 5657  6714  6711 1
 5658  6715  6714 1
 5659  6717  6716 1
 5660  6718  6717 1
 5661  6719  6717 1
 5662  6720  6717 1
 5663  6721  6720 1
 5664  6723  6722 1
 5665  6724  6723 1
 5666  6725  6723 1
 5667  6726  6723 1
 5668  6727  6726 1
 5669  6729  6728 1
 5670  6730  6729 1
 5671  6731  6729 1
 5672  6732  6729 1
 5673  6733  6732 1
 5674  6735  6734 1
 5675  6736  6735 1
 5676  6737  6735 1
 5677  6738  6735 1
 5678  6739  6738 1
 5679  6741  6740 1
 5680  6742  6741 1
 5681  6743  6741 1
 5682  6744  6741 1
 5683  6745  6744 1
 5684  6747  6746 1
 5685  6748  6747 1
 5686  6749  6747 1
 5687  6750  6747 1
 5688  6751  6750 1
 5689  6753  6752 1
 5690  6754  6753 1
 5691  6755  6753 1
 5692  6756  6753 1
 5693  6757  6756 1
 5694  6759  6758 1
 5695  6760  6759 1
 5696  6761  6759 1
 5697  6762  6759 1
 5698  6763  6762 1
 5699  6765  6764 1
 5700  6766  6765 1
 5701  6767  6765 1
 5702  6768  6765 1
 5703  6769  6768 1
 5704  6771  6770 1
 5705  6772  6771 1
 5706  6773  6771 1
 5707  6774  6771 1
 5708  6775  6774 1
 5709  6777  6776 1
 5710  6778  6777 1
 5711  6779  6777 1
 5712  6780  6777 1
 5713  6781  6780 1
 5714  6783  6782 1
 5715  6784  6783 1
 5716  6785  6783 1
 5717  6786  6783 1
 5718  6787  6786 1
 5719  6789  6788 1
 5720  6790  6789 1
 5721  6791  6789 1
 5722  6792  6789 1
 5723  6793  6792 1
 5724  6795  6794 1
 5725  6796  6795 1
 5726  6797  6795 1
 5727  6798  6795 1
 5728  6799  6798 1
 5729  6801  6800 1
 5730  6802  6801 1
 5731  6803  6801 1
 5732  6804  6801 1
 5733  6805  6804 1
 5734  6807  6806 1
 5735  6808  6807 1
 5736  6809  6807 1
 5737  6810  6807 1
 5738  6811  6810 1
 5739  6813  6812 1
 5740  6814  6813 1
 5741  6815  6813 1
 5742  6816  6813 1
 5743  6817  6816 1
 5744  6819  6818 1
 5745  6820  6819 1
 5746  6821  6819 1
 5747  6822  6819 1
 5748  6823  6822 1
 5749  6825  6824 1
 5750  6826  6825 1
 5751  6827  6825 1
 5752  6828  6825 1
 5753  6829  6828 1
 5754  6831  6830 1
 5755  6832  6831 1
 5756  6833  6831 1
 5757  6834  6831 1
 5758  6835  6834 1
 5759  6837  6836 1
 5760  6838  6837 1
 5761  6839  6837 1
 5762  6840  6837 1
 5763  6841  6840 1
 5764  6843  6842 1
 5765  6844  6843 1
 5766  6845  6843 1
 5767  6846  6843 1
 5768  6847  6846 1
 5769  6849  6848 1
 5770  6850  6849 1
 5771  6851  6849 1
 5772  6852  6849 1
 5773  6853  6852 1
 5774  6855  6854 1
 5775  6856  6855 1
 5776  6857  6855 1
 5777  6858  6855 1
 5778  6859  6858 1
 5779  6861  6860 1
 5780  6862  6861 1
 5781  6863  6861 1
 5782  6864  6861 1
 5783  6865  6864 1
 5784  6867  6866 1
 5785  6868  6867 1
 5786  6869  6867 1
 5787  6870  6867 1
 5788  6871  6870 1
 5789  6873  6872 1
 5790  6874  6873 1
 5791  6875  6873 1
 5792  6876  6873 1
 5793  6877  6876 1
 5794  6879  6878 1
 5795  6880  6879 1
 5796  6881  6879 1
 5797  6882  6879 1
 5798  6883  6882 1
 5799  6885  6884 1
 5800  6886  6885 1
 5801  6887  6885 1
 5802  6888  6885 1
 5803  6889  6888 1
 5804  6891  6890 1
 5805  6892  6891 1
 5806  6893  6891 1
 5807  6894  6891 1
 5808  6895  6894 1
 5809  6897  6896 1
 5810  6898  6897 1
 5811  6899  6897 1
 5812  6900  6897 1
 5813  6901  6900 1
 5814  6903  6902 1
 5815  6904  6903 1
 5816  6905  6903 1
 5817  6906  6903 1
 5818  6907  6906 1
 5819  6909  6908 1
 5820  6910  6909 1
 5821  6911  6909 1
 5822  6912  6909 1
 5823  6913  6912 1
 5824  6915  6914 1
 5825  6916  6915 1
 5826  6917  6915 1
 5827  6918  6915 1
 5828  6919  6918 1
 5829  6921  6920 1
 5830  6922  6921 1
 5831  6923  6921 1
 5832  6924  6921 1
 5833  6925  6924 1
 5834  6927  6926 1
 5835  6928  6927 1
 5836  6929  6927 1
 5837  6930  6927 1
 5838  6931  6930 1
 5839  6933  6932 1
 5840  6934  6933 1
 5841  6935  6933 1
 5842  6936  6933 1
 5843  6937  6936 1
 5844  6939  6938 1
 5845  6940  6939 1
 5846  6941  6939 1
 5847  6942  6939 1
 5848  6943  6942 1
 5849  6945  6944 1
 5850  6946  6945 1
 5851  6947  6945 1
 5852  6948  6945 1
 5853  6949  6948 1
 5854  6951  6950 1
 5855  6952  6951 1
 5856  6953  6951 1
 5857  6954  6951 1
 5858  6955  6954 1
 5859  6957  6956 1
 5860  6958  6957 1
 5861  6959  6957 1
 5862  6960  6957 1
 5863  6961  6960 1
 5864  6963  6962 1
 5865  6964  6963 1
 5866  6965  6963 1
 5867  6966  6963 1
 5868  6967  6966 1
 5869  6969  6968 1
 5870  6970  6969 1
 5871  6971  6969 1
 5872  6972  6969 1
 5873  6973  6972 1
 5874  6975  6974 1
 5875  6976  6975 1
 5876  6977  6975 1
 5877  6978  6975 1
 5878  6979  6978 1
 5879  6981  6980 1
 5880  6982  6981 1
 5881  6983  6981 1
 5882  6984  6981 1
 5883  6985  6984 1
 5884  6987  6986 1
 5885  6988  6987 1
 5886  6989  6987 1
 5887  6990  6987 1
 5888  6991  6990 1
 5889  6993  6992 1
 5890  6994  6993 1
 5891  6995  6993 1
 5892  6996  6993 1
 5893  6997  6996 1
 5894  6999  6998 1
 5895  7000  6999 1
 5896  7001  6999 1
 5897  7002  6999 1
 5898  7003  7002 1
 5899  7005  7004 1
 5900  7006  7005 1
 5901  7007  7005 1
 5902  7008  7005 1
 5903  7009  7008 1
 5904  7011  7010 1
 5905  7012  7011 1
 5906  7013  7011 1
 5907  7014  7011 1
 5908  7015  7014 1
 5909  7017  7016 1
 5910  7018  7017 1
 5911  7019  7017 1
 5912  7020  7017 1
 5913  7021  7020 1
 5914  7023  7022 1
 5915  7024  7023 1
 5916  7025  7023 1
 5917  7026  7023 1
 5918  7027  7026 1
 5919  7029  7028 1
 5920  7030  7029 1
 5921  7031  7029 1
 5922  7032  7029 1
 5923  7033  7032 1
 5924  7035  7034 1
 5925  7036  7035 1
 5926  7037  7035 1
 5927  7038  7035 1
 5928  7039  7038 1
 5929  7041  7040 1
 5930  7042  7041 1
 5931  7043  7041 1
 5932  7044  7041 1
 5933  7045  7044 1
 5934  7047  7046 1
 5935  7048  7047 1
 5936  7049  7047 1
 5937  7050  7047 1
 5938  7051  7050 1
 5939  7053  7052 1
 5940  7054  7053 1
 5941  7055  7053 1
 5942  7056  7053 1
 5943  7057  7056 1
 5944  7059  7058 1
 5945  7060  7059 1
 5946  7061  7059 1
 5947  7062  7059 1
 5948  7063  7062 1
 5949  7065  7064 1
 5950  7066  7065 1
 5951  7067  7065 1
 5952  7068  7065 1
 5953  7069  7068 1
 5954  7071  7070 1
 5955  7072  7071 1
 5956  7073  7071 1
 5957  7074  7071 1
 5958  7075  7074 1
 5959  7077  7076 1
 5960  7078  7077 1
 5961  7079  7077 1
 5962  7080  7077 1
 5963  7081  7080 1
 5964  7083  7082 1
 5965  7084  7083 1
 5966  7085  7083 1
 5967  7086  7083 1
 5968  7087  7086 1
 5969  7089  7088 1
 5970  7090  7089 1
 5971  7091  7089 1
 5972  7092  7089 1
 5973  7093  7092 1
 5974  7095  7094 1
 5975  7096  7095 1
 5976  7097  7095 1
 5977  7098  7095 1
 5978  7099  7098 1
 5979  7101  7100 1
 5980  7102  7101 1
 5981  7103  7101 1
 5982  7104  7101 1
 5983  7105  7104 1
 5984  7107  7106 1
 5985  7108  7107 1
 5986  7109  7107 1
 5987  7110  7107 1
 5988  7111  7110 1
 5989  7113  7112 1
 5990  7114  7113 1
 5991  7115  7113 1
 5992  7116  7113 1
 5993  7117  7116 1
 5994  7119  7118 1
 5995  7120  7119 1
 5996  7121  7119 1
 5997  7122  7119 1
 5998  7123  7122 1
 5999  7125  7124 1
 6000  7126  7125 1
 6001  7127  7125 1
 6002  7128  7125 1
 6003  7129  7128 1
 6004  7131  7130 1
 6005  7132  7131 1
 6006  7133  7131 1
 6007  7134  7131 1
 6008  7135  7134 1
 6009  7137  7136 1
 6010  7138  7137 1
 6011  7139  7137 1
 6012  7140  7137 1
 6013  7141  7140 1
 6014  7143  7142 1
 6015  7144  7143 1
 6016  7145  7143 1
 6017  7146  7143 1
 6018  7147  7146 1
 6019  7149  7148 1
 6020  7150  7149 1
 6021  7151  7149 1
 6022  7152  7149 1
 6023  7153  7152 1
 6024  7155  7154 1
 6025  7156  7155 1
 6026  7157  7155 1
 6027  7158  7155 1
 6028  7159  7158 1
 6029  7161  7160 1
 6030  7162  7161 1
 6031  7163  7161 1
 6032  7164  7161 1
 6033  7165  7164 1
 6034  7167  7166 1
 6035  7168  7167 1
 6036  7169  7167 1
 6037  7170  7167 1
 6038  7171  7170 1
 6039  7173  7172 1
 6040  7174  7173 1
 6041  7175  7173 1
 6042  7176  7173 1
 6043  7177  7176 1
 6044  7179  7178 1
 6045  7180  7179 1
 6046  7181  7179 1
 6047  7182  7179 1
 6048  7183  7182 1
 6049  7185  7184 1
 6050  7186  7185 1
 6051  7187  7185 1
 6052  7188  7185 1
 6053  7189  7188 1
 6054  7191  7190 1
 6055  7192  7191 1
 6056  7193  7191 1
 6057  7194  7191 1
 6058  7195  7194 1
 6059  7197  7196 1
 6060  7198  7197 1
 6061  7199  7197 1
 6062  7200  7197 1
 6063  7201  7200 1
 6064  7203  7202 1
 6065  7204  7203 1
 6066  7205  7203 1
 6067  7206  7203 1
 6068  7207  7206 1
 6069  7209  7208 1
 6070  7210  7209 1
 6071  7211  7209 1
 6072  7212  7209 1
 6073  7213  7212 1
 6074  7215  7214 1
 6075  7216  7215 1
 6076  7217  7215 1
 6077  7218  7215 1
 6078  7219  7218 1
 6079  7221  7220 1
 6080  7222  7221 1
 6081  7223  7221 1
 6082  7224  7221 1
 6083  7225  7224 1
 6084  7227  7226 1
 6085  7228  7227 1
 6086  7229  7227 1
 6087  7230  7227 1
 6088  7231  7230 1
 6089  7233  7232 1
 6090  7234  7233 1
 6091  7235  7233 1
 6092  7236  7233 1
 6093  7237  7236 1
 6094  7239  7238 1
 6095  7240  7239 1
 6096  7241  7239 1
 6097  7242  7239 1
 6098  7243  7242 1
 6099  7245  7244 1
 6100  7246  7245 1
 6101  7247  7245 1
 6102  7248  7245 1
 6103  7249  7248 1
 6104  7251  7250 1
 6105  7252  7251 1
 6106  7253  7251 1
 6107  7254  7251 1
 6108  7255  7254 1
 6109  7257  7256 1
 6110  7258  7257 1
 6111  7259  7257 1
 6112  7260  7257 1
 6113  7261  7260 1
 6114  7263  7262 1
 6115  7264  7263 1
 6116  7265  7263 1
 6117  7266  7263 1
 6118  7267  7266 1
 6119  7269  7268 1
 6120  7270  7269 1
 6121  7271  7269 1
 6122  7272  7269 1
 6123  7273  7272 1
 6124  7275  7274 1
 6125  7276  7275 1
 6126  7277  7275 1
 6127  7278  7275 1
 6128  7279  7278 1
 6129  7281  7280 1
 6130  7282  7281 1
 6131  7283  7281 1
 6132  7284  7281 1
 6133  7285  7284 1
 6134  7287  7286 1
 6135  7288  7287 1
 6136  7289  7287 1
 6137  7290  7287 1
 6138  7291  7290 1
 6139  7293  7292 1
 6140  7294  7293 1
 6141  7295  7293 1
 6142  7296  7293 1
 6143  7297  7296 1
 6144  7299  7298 1
 6145  7300  7299 1
 6146  7301  7299 1
 6147  7302  7299 1
 6148  7303  7302 1
 6149  7305  7304 1
 6150  7306  7305 1
 6151  7307  7305 1
 6152  7308  7305 1
 6153  7309  7308 1
 6154  7311  7310 1
 6155  7312  7311 1
 6156  7313  7311 1
 6157  7314  7311 1
 6158  7315  7314 1
 6159  7317  7316 1
 6160  7318  7317 1
 6161  7319  7317 1
 6162  7320  7317 1
 6163  7321  7320 1
 6164  7323  7322 1
 6165  7324  7323 1
 6166  7325  7323 1
 6167  7326  7323 1
 6168  7327  7326 1
 6169  7329  7328 1
 6170  7330  7329 1
 6171  7331  7329 1
 6172  7332  7329 1
 6173  7333  7332 1
 6174  7335  7334 1
 6175  7336  7335 1
 6176  7337  7335 1
 6177  7338  7335 1
 6178  7339  7338 1
 6179  7341  7340 1
 6180  7342  7341 1
 6181  7343  7341 1
 6182  7344  7341 1
 6183  7345  7344 1
 6184  7347  7346 1
 6185  7348  7347 1
 6186  7349  7347 1
 6187  7350  7347 1
 6188  7351  7350 1
 6189  7353  7352 1
 6190  7354  7353 1
 6191  7355  7353 1
 6192  7356  7353 1
 6193  7357  7356 1
 6194  7359  7358 1
 6195  7360  7359 1
 6196  7361  7359 1
 6197  7362  7359 1
 6198  7363  7362 1
 6199  7365  7364 1
 6200  7366  7365 1
 6201  7367  7365 1
 6202  7368  7365 1
 6203  7369  7368 1
 6204  7371  7370 1
 6205  7372  7371 1
 6206  7373  7371 1
 6207  7374  7371 1
 6208  7375  7374 1
 6209  7377  7376 1
 6210  7378  7377 1
 6211  7379  7377 1
 6212  7380  7377 1
 6213  7381  7380 1
 6214  7383  7382 1
 6215  7384  7383 1
 6216  7385  7383 1
 6217  7386  7383 1
 6218  7387  7386 1
 6219  7389  7388 1
 6220  7390  7389 1
 6221  7391  7389 1
 6222  7392  7389 1
 6223  7393  7392 1
 6224  7395  7394 1
 6225  7396  7395 1
 6226  7397  7395 1
 6227  7398  7395 1
 6228  7399  7398 1
 6229  7401  7400 1
 6230  7402  7401 1
 6231  7403  7401 1
 6232  7404  7401 1
 6233  7405  7404 1
 6234  7407  7406 1
 6235  7408  7407 1
 6236  7409  7407 1
 6237  7410  7407 1
 6238  7411  7410 1
 6239  7413  7412 1
 6240  7414  7413 1
 6241  7415  7413 1
 6242  7416  7413 1
 6243  7417  7416 1
 6244  7419  7418 1
 6245  7420  7419 1
 6246  7421  7419 1
 6247  7422  7419 1
 6248  7423  7422 1
 6249  7425  7424 1
 6250  7426  7425 1
 6251  7427  7425 1
 6252  7428  7425 1
 6253  7429  7428 1
 6254  7431  7430 1
 6255  7432  7431 1
 6256  7433  7431 1
 6257  7434  7431 1
 6258  7435  7434 1
 6259  7437  7436 1
 6260  7438  7437 1
 6261  7439  7437 1
 6262  7440  7437 1
 6263  7441  7440 1
 6264  7443  7442 1
 6265  7444  7443 1
 6266  7445  7443 1
 6267  7446  7443 1
 6268  7447  7446 1
 6269  7449  7448 1
 6270  7450  7449 1
 6271  7451  7449 1
 6272  7452  7449 1
 6273  7453  7452 1
 6274  7455  7454 1
 6275  7456  7455 1
 6276  7457  7455 1
 6277  7458  7455 1
 6278  7459  7458 1
 6279  7461  7460 1
 6280  7462  7461 1
 6281  7463  7461 1
 6282  7464  7461 1
 6283  7465  7464 1
 6284  7467  7466 1
 6285  7468  7467 1
 6286  7469  7467 1
 6287  7470  7467 1
 6288  7471  7470 1
 6289  7473  7472 1
 6290  7474  7473 1
 6291  7475  7473 1
 6292  7476  7473 1
 6293  7477  7476 1
 6294  7479  7478 1
 6295  7480  7479 1
 6296  7481  7479 1
 6297  7482  7479 1
 6298  7483  7482 1
 6299  7485  7484 1
 6300  7486  7485 1
 6301  7487  7485 1
 6302  7488  7485 1
 6303  7489  7488 1
 6304  7491  7490 1
 6305  7492  7491 1
 6306  7493  7491 1
 6307  7494  7491 1
 6308  7495  7494 1
 6309  7497  7496 1
 6310  7498  7497 1
 6311  7499  7497 1
 6312  7500  7497 1
 6313  7501  7500 1
 6314  7503  7502 1
 6315  7504  7503 1
 6316  7505  7503 1
 6317  7506  7503 1
 6318  7507  7506 1
 6319  7509  7508 1
 6320  7510  7509 1
 6321  7511  7509 1
 6322  7512  7509 1
 6323  7513  7512 1
 6324  7515  7514 1
 6325  7516  7515 1
 6326  7517  7515 1
 6327  7518  7515 1
 6328  7519  7518 1
 6329  7521  7520 1
 6330  7522  7521 1
 6331  7523  7521 1
 6332  7524  7521 1
 6333  7525  7524 1
 6334  7527  7526 1
 6335  7528  7527 1
 6336  7529  7527 1
 6337  7530  7527 1
 6338  7531  7530 1
 6339  7533  7532 1
 6340  7534  7533 1
 6341  7535  7533 1
 6342  7536  7533 1
 6343  7537  7536 1
 6344  7539  7538 1
 6345  7540  7539 1
 6346  7541  7539 1
 6347  7542  7539 1
 6348  7543  7542 1
 6349  7545  7544 1
 6350  7546  7545 1
 6351  7547  7545 1
 6352  7548  7545 1
 6353  7549  7548 1
 6354  7551  7550 1
 6355  7552  7551 1
 6356  7553  7551 1
 6357  7554  7551 1
 6358  7555  7554 1
 6359  7557  7556 1
 6360  7558  7557 1
 6361  7559  7557 1
 6362  7560  7557 1
 6363  7561  7560 1
 6364  7563  7562 1
 6365  7564  7563 1
 6366  7565  7563 1
 6367  7566  7563 1
 6368  7567  7566 1
 6369  7569  7568 1
 6370  7570  7569 1
 6371  7571  7569 1
 6372  7572  7569 1
 6373  7573  7572 1
 6374  7575  7574 1
 6375  7576  7575 1
 6376  7577  7575 1
 6377  7578  7575 1
 6378  7579  7578 1
 6379  7581  7580 1
 6380  7582  7581 1
 6381  7583  7581 1
 6382  7584  7581 1
 6383  7585  7584 1
 6384  7587  7586 1
 6385  7588  7587 1
 6386  7589  7587 1
 6387  7590  7587 1
 6388  7591  7590 1
 6389  7593  7592 1
 6390  7594  7593 1
 6391  7595  7593 1
 6392  7596  7593 1
 6393  7597  7596 1
 6394  7599  7598 1
 6395  7600  7599 1
 6396  7601  7599 1
 6397  7602  7599 1
 6398  7603  7602 1
 6399  7605  7604 1
 6400  7606  7605 1
 6401  7607  7605 1
 6402  7608  7605 1
 6403  7609  7608 1
 6404  7611  7610 1
 6405  7612  7611 1
 6406  7613  7611 1
 6407  7614  7611 1
 6408  7615  7614 1
 6409  7617  7616 1
 6410  7618  7617 1
 6411  7619  7617 1
 6412  7620  7617 1
 6413  7621  7620 1
 6414  7623  7622 1
 6415  7624  7623 1
 6416  7625  7623 1
 6417  7626  7623 1
 6418  7627  7626 1
 6419  7629  7628 1
 6420  7630  7629 1
 6421  7631  7629 1
 6422  7632  7629 1
 6423  7633  7632 1
 6424  7635  7634 1
 6425  7636  7635 1
 6426  7637  7635 1
 6427  7638  7635 1
 6428  7639  7638 1
 6429  7641  7640 1
 6430  7642  7641 1
 6431  7643  7641 1
 6432  7644  7641 1
 6433  7645  7644 1
 6434  7647  7646 1
 6435  7648  7647 1
 6436  7649  7647 1
 6437  7650  7647 1
 6438  7651  7650 1
 6439  7653  7652 1
 6440  7654  7653 1
 6441  7655  7653 1
 6442  7656  7653 1
 6443  7657  7656 1
 6444  7659  7658 1
 6445  7660  7659 1
 6446  7661  7659 1
 6447  7662  7659 1
 6448  7663  7662 1
 6449  7665  7664 1
 6450  7666  7665 1
 6451  7667  7665 1
 6452  7668  7665 1
 6453  7669  7668 1
 6454  7671  7670 1
 6455  7672  7671 1
 6456  7673  7671 1
 6457  7674  7671 1
 6458  7675  7674 1
 6459  7677  7676 1
 6460  7678  7677 1
 6461  7679  7677 1
 6462  7680  7677 1
 6463  7681  7680 1
 6464  7683  7682 1
 6465  7684  7683 1
 6466  7685  7683 1
 6467  7686  7683 1
 6468  7687  7686 1
 6469  7689  7688 1
 6470  7690  7689 1
 6471  7691  7689 1
 6472  7692  7689 1
 6473  7693  7692 1
 6474  7695  7694 1
 6475  7696  7695 1
 6476  7697  7695 1
 6477  7698  7695 1
 6478  7699  7698 1
 6479  7701  7700 1
 6480  7702  7701 1
 6481  7703  7701 1
 6482  7704  7701 1
 6483  7705  7704 1
 6484  7707  7706 1
 6485  7708  7707 1
 6486  7709  7707 1
 6487  7710  7707 1
 6488  7711  7710 1
 6489  7713  7712 1
 6490  7714  7713 1
 6491  7715  7713 1
 6492  7716  7713 1
 6493  7717  7716 1
 6494  7719  7718 1
 6495  7720  7719 1
 6496  7721  7719 1
 6497  7722  7719 1
 6498  7723  7722 1
 6499  7725  7724 1
 6500  7726  7725 1
 6501  7727  7725 1
 6502  7728  7725 1
 6503  7729  7728 1
 6504  7731  7730 1
 6505  7732  7731 1
 6506  7733  7731 1
 6507  7734  7731 1
 6508  7735  7734 1
 6509  7737  7736 1
 6510  7738  7737 1
 6511  7739  7737 1
 6512  7740  7737 1
 6513  7741  7740 1
 6514  7743  7742 1
 6515  7744  7743 1
 6516  7745  7743 1
 6517  7746  7743 1
 6518  7747  7746 1
 6519  7749  7748 1
 6520  7750  7749 1
 6521  7751  7749 1
 6522  7752  7749 1
 6523  7753  7752 1
 6524  7755  7754 1
 6525  7756  7755 1
 6526  7757  7755 1
 6527  7758  7755 1
 6528  7759  7758 1
 6529  7761  7760 1
 6530  7762  7761 1
 6531  7763  7761 1
 6532  7764  7761 1
 6533  7765  7764 1
 6534  7767  7766 1
 6535  7768  7767 1
 6536  7769  7767 1
 6537  7770  7767 1
 6538  7771  7770 1
 6539  7773  7772 1
 6540  7774  7773 1
 6541  7775  7773 1
 6542  7776  7773 1
 6543  7777  7776 1
 6544  7779  7778 1
 6545  7780  7779 1
 6546  7781  7779 1
 6547  7782  7779 1
 6548  7783  7782 1
 6549  7785  7784 1
 6550  7786  7785 1
 6551  7787  7785 1
 6552  7788  7785 1
 6553  7789  7788 1
 6554  7791  7790 1
 6555  7792  7791 1
 6556  7793  7791 1
 6557  7794  7791 1
 6558  7795  7794 1
 6559  7797  7796 1
 6560  7798  7797 1
 6561  7799  7797 1
 6562  7800  7797 1
 6563  7801  7800 1
 6564  7803  7802 1
 6565  7804  7803 1
 6566  7805  7803 1
 6567  7806  7803 1
 6568  7807  7806 1
 6569  7809  7808 1
 6570  7810  7809 1
 6571  7811  7809 1
 6572  7812  7809 1
 6573  7813  7812 1
 6574  7815  7814 1
 6575  7816  7815 1
 6576  7817  7815 1
 6577  7818  7815 1
 6578  7819  7818 1
 6579  7821  7820 1
 6580  7822  7821 1
 6581  7823  7821 1
 6582  7824  7821 1
 6583  7825  7824 1
 6584  7827  7826 1
 6585  7828  7827 1
 6586  7829  7827 1
 6587  7830  7827 1
 6588  7831  7830 1
 6589  7833  7832 1
 6590  7834  7833 1
 6591  7835  7833 1
 6592  7836  7833 1
 6593  7837  7836 1
 6594  7839  7838 1
 6595  7840  7839 1
 6596  7841  7839 1
 6597  7842  7839 1
 6598  7843  7842 1
 6599  7845  7844 1
 6600  7846  7845 1
 6601  7847  7845 1
 6602  7848  7845 1
 6603  7849  7848 1
 6604  7851  7850 1
 6605  7852  7851 1
 6606  7853  7851 1
 6607  7854  7851 1
 6608  7855  7854 1
 6609  7857  7856 1
 6610  7858  7857 1
 6611  7859  7857 1
 6612  7860  7857 1
 6613  7861  7860 1
 6614  7863  7862 1
 6615  7864  7863 1
 6616  7865  7863 1
 6617  7866  7863 1
 6618  7867  7866 1
 6619  7869  7868 1
 6620  7870  7869 1
 6621  7871  7869 1
 6622  7872  7869 1
 6623  7873  7872 1
 6624  7875  7874 1
 6625  7876  7875 1
 6626  7877  7875 1
 6627  7878  7875 1
 6628  7879  7878 1
 6629  7881  7880 1
 6630  7882  7881 1
 6631  7883  7881 1
 6632  7884  7881 1
 6633  7885  7884 1
 6634  7887  7886 1
 6635  7888  7887 1
 6636  7889  7887 1
 6637  7890  7887 1
 6638  7891  7890 1
 6639  7893  7892 1
 6640  7894  7893 1
 6641  7895  7893 1
 6642  7896  7893 1
 6643  7897  7896 1
 6644  7899  7898 1
 6645  7900  7899 1
 6646  7901  7899 1
 6647  7902  7899 1
 6648  7903  7902 1
 6649  7905  7904 1
 6650  7906  7905 1
 6651  7907  7905 1
 6652  7908  7905 1
 6653  7909  7908 1
 6654  7911  7910 1
 6655  7912  7911 1
 6656  7913  7911 1
 6657  7914  7911 1
 6658  7915  7914 1
 6659  7917  7916 1
 6660  7918  7917 1
 6661  7919  7917 1
 6662  7920  7917 1
 6663  7921  7920 1
 6664  7923  7922 1
 6665  7924  7923 1
 6666  7925  7923 1
 6667  7926  7923 1
 6668  7927  7926 1
 6669  7929  7928 1
 6670  7930  7929 1
 6671  7931  7929 1
 6672  7932  7929 1
 6673  7933  7932 1
 6674  7935  7934 1
 6675  7936  7935 1
 6676  7937  7935 1
 6677  7938  7935 1
 6678  7939  7938 1
 6679  7941  7940 1
 6680  7942  7941 1
 6681  7943  7941 1
 6682  7944  7941 1
 6683  7945  7944 1
 6684  7947  7946 1
 6685  7948  7947 1
 6686  7949  7947 1
 6687  7950  7947 1
 6688  7951  7950 1
 6689  7953  7952 1
 6690  7954  7953 1
 6691  7955  7953 1
 6692  7956  7953 1
 6693  7957  7956 1
 6694  7959  7958 1
 6695  7960  7959 1
 6696  7961  7959 1
 6697  7962  7959 1
 6698  7963  7962 1
 6699  7965  7964 1
 6700  7966  7965 1
 6701  7967  7965 1
 6702  7968  7965 1
 6703  7969  7968 1
 6704  7971  7970 1
 6705  7972  7971 1
 6706  7973  7971 1
 6707  7974  7971 1
 6708  7975  7974 1
 6709  7977  7976 1
 6710  7978  7977 1
 6711  7979  7977 1
 6712  7980  7977 1
 6713  7981  7980 1
 6714  7983  7982 1
 6715  7984  7983 1
 6716  7985  7983 1
 6717  7986  7983 1
 6718  7987  7986 1
 6719  7989  7988 1
 6720  7990  7989 1
 6721  7991  7989 1
 6722  7992  7989 1
 6723  7993  7992 1
 6724  7995  7994 1
 6725  7996  7995 1
 6726  7997  7995 1
 6727  7998  7995 1
 6728  7999  7998 1
 6729  8001  8000 1
 6730  8002  8001 1
 6731  8003  8001 1
 6732  8004  8001 1
 6733  8005  8004 1
 6734  8007  8006 1
 6735  8008  8007 1
 6736  8009  8007 1
 6737  8010  8007 1
 6738  8011  8010 1
 6739  8013  8012 1
 6740  8014  8013 1
 6741  8015  8013 1
 6742  8016  8013 1
 6743  8017  8016 1
 6744  8019  8018 1
 6745  8020  8019 1
 6746  8021  8019 1
 6747  8022  8019 1
 6748  8023  8022 1
 6749  8025  8024 1
 6750  8026  8025 1
 6751  8027  8025 1
 6752  8028  8025 1
 6753  8029  8028 1
 6754  8031  8030 1
 6755  8032  8031 1
 6756  8033  8031 1
 6757  8034  8031 1
 6758  8035  8034 1
 6759  8037  8036 1
 6760  8038  8037 1
 6761  8039  8037 1
 6762  8040  8037 1
 6763  8041  8040 1
 6764  8043  8042 1
 6765  8044  8043 1
 6766  8045  8043 1
 6767  8046  8043 1
 6768  8047  8046 1
 6769  8049  8048 1
 6770  8050  8049 1
 6771  8051  8049 1
 6772  8052  8049 1
 6773  8053  8052 1
 6774  8055  8054 1
 6775  8056  8055 1
 6776  8057  8055 1
 6777  8058  8055 1
 6778  8059  8058 1
 6779  8061  8060 1
 6780  8062  8061 1
 6781  8063  8061 1
 6782  8064  8061 1
 6783  8065  8064 1
 6784  8067  8066 1
 6785  8068  8067 1
 6786  8069  8067 1
 6787  8070  8067 1
 6788  8071  8070 1
 6789  8073  8072 1
 6790  8074  8073 1
 6791  8075  8073 1
 6792  8076  8073 1
 6793  8077  8076 1
 6794  8079  8078 1
 6795  8080  8079 1
 6796  8081  8079 1
 6797  8082  8079 1
 6798  8083  8082 1
 6799  8085  8084 1
 6800  8086  8085 1
 6801  8087  8085 1
 6802  8088  8085 1
 6803  8089  8088 1
 6804  8091  8090 1
 6805  8092  8091 1
 6806  8093  8091 1
 6807  8094  8091 1
 6808  8095  8094 1
 6809  8097  8096 1
 6810  8098  8097 1
 6811  8099  8097 1
 6812  8100  8097 1
 6813  8101  8100 1
 6814  8103  8102 1
 6815  8104  8103 1
 6816  8105  8103 1
 6817  8106  8103 1
 6818  8107  8106 1
 6819  8109  8108 1
 6820  8110  8109 1
 6821  8111  8109 1
 6822  8112  8109 1
 6823  8113  8112 1
 6824  8115  8114 1
 6825  8116  8115 1
 6826  8117  8115 1
 6827  8118  8115 1
 6828  8119  8118 1
 6829  8121  8120 1
 6830  8122  8121 1
 6831  8123  8121 1
 6832  8124  8121 1
 6833  8125  8124 1
 6834  8127  8126 1
 6835  8128  8127 1
 6836  8129  8127 1
 6837  8130  8127 1
 6838  8131  8130 1
 6839  8133  8132 1
 6840  8134  8133 1
 6841  8135  8133 1
 6842  8136  8133 1
 6843  8137  8136 1
 6844  8139  8138 1
 6845  8140  8139 1
 6846  8141  8139 1
 6847  8142  8139 1
 6848  8143  8142 1
 6849  8145  8144 1
 6850  8146  8145 1
 6851  8147  8145 1
 6852  8148  8145 1
 6853  8149  8148 1
 6854  8151  8150 1
 6855  8152  8151 1
 6856  8153  8151 1
 6857  8154  8151 1
 6858  8155  8154 1
 6859  8157  8156 1
 6860  8158  8157 1
 6861  8159  8157 1
 6862  8160  8157 1
 6863  8161  8160 1
 6864  8163  8162 1
 6865  8164  8163 1
 6866  8165  8163 1
 6867  8166  8163 1
 6868  8167  8166 1
 6869  8169  8168 1
 6870  8170  8169 1
 6871  8171  8169 1
 6872  8172  8169 1
 6873  8173  8172 1
 6874  8175  8174 1
 6875  8176  8175 1
 6876  8177  8175 1
 6877  8178  8175 1
 6878  8179  8178 1
 6879  8181  8180 1
 6880  8182  8181 1
 6881  8183  8181 1
 6882  8184  8181 1
 6883  8185  8184 1
 6884  8187  8186 1
 6885  8188  8187 1
 6886  8189  8187 1
 6887  8190  8187 1
 6888  8191  8190 1
 6889  8193  8192 1
 6890  8194  8193 1
 6891  8195  8193 1
 6892  8196  8193 1
 6893  8197  8196 1
 6894  8199  8198 1
 6895  8200  8199 1
 6896  8201  8199 1
 6897  8202  8199 1
 6898  8203  8202 1
 6899  8205  8204 1
 6900  8206  8205 1
 6901  8207  8205 1
 6902  8208  8205 1
 6903  8209  8208 1
 6904  8211  8210 1
 6905  8212  8211 1
 6906  8213  8211 1
 6907  8214  8211 1
 6908  8215  8214 1
 6909  8217  8216 1
 6910  8218  8217 1
 6911  8219  8217 1
 6912  8220  8217 1
 6913  8221  8220 1
 6914  8223  8222 1
 6915  8224  8223 1
 6916  8225  8223 1
 6917  8226  8223 1
 6918  8227  8226 1
 6919  8229  8228 1
 6920  8230  8229 1
 6921  8231  8229 1
 6922  8232  8229 1
 6923  8233  8232 1
 6924  8235  8234 1
 6925  8236  8235 1
 6926  8237  8235 1
 6927  8238  8235 1
 6928  8239  8238 1
 6929  8241  8240 1
 6930  8242  8241 1
 6931  8243  8241 1
 6932  8244  8241 1
 6933  8245  8244 1
 6934  8247  8246 1
 6935  8248  8247 1
 6936  8249  8247 1
 6937  8250  8247 1
 6938  8251  8250 1
 6939  8253  8252 1
 6940  8254  8253 1
 6941  8255  8253 1
 6942  8256  8253 1
 6943  8257  8256 1
 6944  8259  8258 1
 6945  8260  8259 1
 6946  8261  8259 1
 6947  8262  8259 1
 6948  8263  8262 1
 6949  8265  8264 1
 6950  8266  8265 1
 6951  8267  8265 1
 6952  8268  8265 1
 6953  8269  8268 1
 6954  8271  8270 1
 6955  8272  8271 1
 6956  8273  8271 1
 6957  8274  8271 1
 6958  8275  8274 1
 6959  8277  8276 1
 6960  8278  8277 1
 6961  8279  8277 1
 6962  8280  8277 1
 6963  8281  8280 1
 6964  8283  8282 1
 6965  8284  8283 1
 6966  8285  8283 1
 6967  8286  8283 1
 6968  8287  8286 1
 6969  8289  8288 1
 6970  8290  8289 1
 6971  8291  8289 1
 6972  8292  8289 1
 6973  8293  8292 1
 6974  8295  8294 1
 6975  8296  8295 1
 6976  8297  8295 1
 6977  8298  8295 1
 6978  8299  8298 1
 6979  8301  8300 1
 6980  8302  8301 1
 6981  8303  8301 1
 6982  8304  8301 1
 6983  8305  8304 1
 6984  8307  8306 1
 6985  8308  8307 1
 6986  8309  8307 1
 6987  8310  8307 1
 6988  8311  8310 1
 6989  8313  8312 1
 6990  8314  8313 1
 6991  8315  8313 1
 6992  8316  8313 1
 6993  8317  8316 1
 6994  8319  8318 1
 6995  8320  8319 1
 6996  8321  8319 1
 6997  8322  8319 1
 6998  8323  8322 1
 6999  8325  8324 1
 7000  8326  8325 1
 7001  8327  8325 1
 7002  8328  8325 1
 7003  8329  8328 1
 7004  8331  8330 1
 7005  8332  8331 1
 7006  8333  8331 1
 7007  8334  8331 1
 7008  8335  8334 1
 7009  8337  8336 1
 7010  8338  8337 1
 7011  8339  8337 1
 7012  8340  8337 1
 7013  8341  8340 1
 7014  8343  8342 1
 7015  8344  8343 1
 7016  8345  8343 1
 7017  8346  8343 1
 7018  8347  8346 1
 7019  8349  8348 1
 7020  8350  8349 1
 7021  8351  8349 1
 7022  8352  8349 1
 7023  8353  8352 1
 7024  8355  8354 1
 7025  8356  8355 1
 7026  8357  8355 1
 7027  8358  8355 1
 7028  8359  8358 1
 7029  8361  8360 1
 7030  8362  8361 1
 7031  8363  8361 1
 7032  8364  8361 1
 7033  8365  8364 1
 7034  8367  8366 1
 7035  8368  8367 1
 7036  8369  8367 1
 7037  8370  8367 1
 7038  8371  8370 1
 7039  8373  8372 1
 7040  8374  8373 1
 7041  8375  8373 1
 7042  8376  8373 1
 7043  8377  8376 1
 7044  8379  8378 1
 7045  8380  8379 1
 7046  8381  8379 1
 7047  8382  8379 1
 7048  8383  8382 1
 7049  8385  8384 1
 7050  8386  8385 1
 7051  8387  8385 1
 7052  8388  8385 1
 7053  8389  8388 1
 7054  8391  8390 1
 7055  8392  8391 1
 7056  8393  8391 1
 7057  8394  8391 1
 7058  8395  8394 1
 7059  8397  8396 1
 7060  8398  8397 1
 7061  8399  8397 1
 7062  8400  8397 1
 7063  8401  8400 1
 7064  8403  8402 1
 7065  8404  8403 1
 7066  8405  8403 1
 7067  8406  8403 1
 7068  8407  8406 1
 7069  8409  8408 1
 7070  8410  8409 1
 7071  8411  8409 1
 7072  8412  8409 1
 7073  8413  8412 1
 7074  8415  8414 1
 7075  8416  8415 1
 7076  8417  8415 1
 7077  8418  8415 1
 7078  8419  8418 1
 7079  8421  8420 1
 7080  8422  8421 1
 7081  8423  8421 1
 7082  8424  8421 1
 7083  8425  8424 1
 7084  8427  8426 1
 7085  8428  8427 1
 7086  8429  8427 1
 7087  8430  8427 1
 7088  8431  8430 1
 7089  8433  8432 1
 7090  8434  8433 1
 7091  8435  8433 1
 7092  8436  8433 1
 7093  8437  8436 1
 7094  8439  8438 1
 7095  8440  8439 1
 7096  8441  8439 1
 7097  8442  8439 1
 7098  8443  8442 1
 7099  8445  8444 1
 7100  8446  8445 1
 7101  8447  8445 1
 7102  8448  8445 1
 7103  8449  8448 1
 7104  8451  8450 1
 7105  8452  8451 1
 7106  8453  8451 1
 7107  8454  8451 1
 7108  8455  8454 1
 7109  8457  8456 1
 7110  8458  8457 1
 7111  8459  8457 1
 7112  8460  8457 1
 7113  8461  8460 1
 7114  8463  8462 1
 7115  8464  8463 1
 7116  8465  8463 1
 7117  8466  8463 1
 7118  8467  8466 1
 7119  8469  8468 1
 7120  8470  8469 1
 7121  8471  8469 1
 7122  8472  8469 1
 7123  8473  8472 1
 7124  8475  8474 1
 7125  8476  8475 1
 7126  8477  8475 1
 7127  8478  8475 1
 7128  8479  8478 1
 7129  8481  8480 1
 7130  8482  8481 1
 7131  8483  8481 1
 7132  8484  8481 1
 7133  8485  8484 1
 7134  8487  8486 1
 7135  8488  8487 1
 7136  8489  8487 1
 7137  8490  8487 1
 7138  8491  8490 1
 7139  8493  8492 1
 7140  8494  8493 1
 7141  8495  8493 1
 7142  8496  8493 1
 7143  8497  8496 1
 7144  8499  8498 1
 7145  8500  8499 1
 7146  8501  8499 1
 7147  8502  8499 1
 7148  8503  8502 1
 7149  8505  8504 1
 7150  8506  8505 1
 7151  8507  8505 1
 7152  8508  8505 1
 7153  8509  8508 1
 7154  8511  8510 1
 7155  8512  8511 1
 7156  8513  8511 1
 7157  8514  8511 1
 7158  8515  8514 1
 7159  8517  8516 1
 7160  8518  8517 1
 7161  8519  8517 1
 7162  8520  8517 1
 7163  8521  8520 1
 7164  8523  8522 1
 7165  8524  8523 1
 7166  8525  8523 1
 7167  8526  8523 1
 7168  8527  8526 1
 7169  8529  8528 1
 7170  8530  8529 1
 7171  8531  8529 1
 7172  8532  8529 1
 7173  8533  8532 1
 7174  8535  8534 1
 7175  8536  8535 1
 7176  8537  8535 1
 7177  8538  8535 1
 7178  8539  8538 1
 7179  8541  8540 1
 7180  8542  8541 1
 7181  8543  8541 1
 7182  8544  8541 1
 7183  8545  8544 1
 7184  8547  8546 1
 7185  8548  8547 1
 7186  8549  8547 1
 7187  8550  8547 1
 7188  8551  8550 1
 7189  8553  8552 1
 7190  8554  8553 1
 7191  8555  8553 1
 7192  8556  8553 1
 7193  8557  8556 1
 7194  8559  8558 1
 7195  8560  8559 1
 7196  8561  8559 1
 7197  8562  8559 1
 7198  8563  8562 1
 7199  8565  8564 1
 7200  8566  8565 1
 7201  8567  8565 1
 7202  8568  8565 1
 7203  8569  8568 1
 7204  8571  8570 1
 7205  8572  8571 1
 7206  8573  8571 1
 7207  8574  8571 1
 7208  8575  8574 1
 7209  8577  8576 1
 7210  8578  8577 1
 7211  8579  8577 1
 7212  8580  8577 1
 7213  8581  8580 1
 7214  8583  8582 1
 7215  8584  8583 1
 7216  8585  8583 1
 7217  8586  8583 1
 7218  8587  8586 1
 7219  8589  8588 1
 7220  8590  8589 1
 7221  8591  8589 1
 7222  8592  8589 1
 7223  8593  8592 1
 7224  8595  8594 1
 7225  8596  8595 1
 7226  8597  8595 1
 7227  8598  8595 1
 7228  8599  8598 1
 7229  8601  8600 1
 7230  8602  8601 1
 7231  8603  8601 1
 7232  8604  8601 1
 7233  8605  8604 1
 7234  8607  8606 1
 7235  8608  8607 1
 7236  8609  8607 1
 7237  8610  8607 1
 7238  8611  8610 1
 7239  8613  8612 1
 7240  8614  8613 1
 7241  8615  8613 1
 7242  8616  8613 1
 7243  8617  8616 1
 7244  8619  8618 1
 7245  8620  8619 1
 7246  8621  8619 1
 7247  8622  8619 1
 7248  8623  8622 1
 7249  8625  8624 1
 7250  8626  8625 1
 7251  8627  8625 1
 7252  8628  8625 1
 7253  8629  8628 1
 7254  8631  8630 1
 7255  8632  8631 1
 7256  8633  8631 1
 7257  8634  8631 1
 7258  8635  8634 1
 7259  8637  8636 1
 7260  8638  8637 1
 7261  8639  8637 1
 7262  8640  8637 1
 7263  8641  8640 1
 7264  8643  8642 1
 7265  8644  8643 1
 7266  8645  8643 1
 7267  8646  8643 1
 7268  8647  8646 1
 7269  8649  8648 1
 7270  8650  8649 1
 7271  8651  8649 1
 7272  8652  8649 1
 7273  8653  8652 1
 7274  8655  8654 1
 7275  8656  8655 1
 7276  8657  8655 1
 7277  8658  8655 1
 7278  8659  8658 1
 7279  8661  8660 1
 7280  8662  8661 1
 7281  8663  8661 1
 7282  8664  8661 1
 7283  8665  8664 1
 7284  8667  8666 1
 7285  8668  8667 1
 7286  8669  8667 1
 7287  8670  8667 1
 7288  8671  8670 1
 7289  8673  8672 1
 7290  8674  8673 1
 7291  8675  8673 1
 7292  8676  8673 1
 7293  8677  8676 1
 7294  8679  8678 1
 7295  8680  8679 1
 7296  8681  8679 1
 7297  8682  8679 1
 7298  8683  8682 1
 7299  8685  8684 1
 7300  8686  8685 1
 7301  8687  8685 1
 7302  8688  8685 1
 7303  8689  8688 1
 7304  8691  8690 1
 7305  8692  8691 1
 7306  8693  8691 1
 7307  8694  8691 1
 7308  8695  8694 1
 7309  8697  8696 1
 7310  8698  8697 1
 7311  8699  8697 1
 7312  8700  8697 1
 7313  8701  8700 1
 7314  8703  8702 1
 7315  8704  8703 1
 7316  8705  8703 1
 7317  8706  8703 1
 7318  8707  8706 1
 7319  8709  8708 1
 7320  8710  8709 1
 7321  8711  8709 1
 7322  8712  8709 1
 7323  8713  8712 1
 7324  8715  8714 1
 7325  8716  8715 1
 7326  8717  8715 1
 7327  8718  8715 1
 7328  8719  8718 1
 7329  8721  8720 1
 7330  8722  8721 1
 7331  8723  8721 1
 7332  8724  8721 1
 7333  8725  8724 1
 7334  8727  8726 1
 7335  8728  8727 1
 7336  8729  8727 1
 7337  8730  8727 1
 7338  8731  8730 1
 7339  8733  8732 1
 7340  8734  8733 1
 7341  8735  8733 1
 7342  8736  8733 1
 7343  8737  8736 1
 7344  8739  8738 1
 7345  8740  8739 1
 7346  8741  8739 1
 7347  8742  8739 1
 7348  8743  8742 1
 7349  8745  8744 1
 7350  8746  8745 1
 7351  8747  8745 1
 7352  8748  8745 1
 7353  8749  8748 1
 7354  8751  8750 1
 7355  8752  8751 1
 7356  8753  8751 1
 7357  8754  8751 1
 7358  8755  8754 1
 7359  8757  8756 1
 7360  8758  8757 1
 7361  8759  8757 1
 7362  8760  8757 1
 7363  8761  8760 1
 7364  8763  8762 1
 7365  8764  8763 1
 7366  8765  8763 1
 7367  8766  8763 1
 7368  8767  8766 1
 7369  8769  8768 1
 7370  8770  8769 1
 7371  8771  8769 1
 7372  8772  8769 1
 7373  8773  8772 1
 7374  8775  8774 1
 7375  8776  8775 1
 7376  8777  8775 1
 7377  8778  8775 1
 7378  8779  8778 1
 7379  8781  8780 1
 7380  8782  8781 1
 7381  8783  8781 1
 7382  8784  8781 1
 7383  8785  8784 1
 7384  8787  8786 1
 7385  8788  8787 1
 7386  8789  8787 1
 7387  8790  8787 1
 7388  8791  8790 1
 7389  8793  8792 1
 7390  8794  8793 1
 7391  8795  8793 1
 7392  8796  8793 1
 7393  8797  8796 1
 7394  8799  8798 1
 7395  8800  8799 1
 7396  8801  8799 1
 7397  8802  8799 1
 7398  8803  8802 1
 7399  8805  8804 1
 7400  8806  8805 1
 7401  8807  8805 1
 7402  8808  8805 1
 7403  8809  8808 1
 7404  8811  8810 1
 7405  8812  8811 1
 7406  8813  8811 1
 7407  8814  8811 1
 7408  8815  8814 1
 7409  8817  8816 1
 7410  8818  8817 1
 7411  8819  8817 1
 7412  8820  8817 1
 7413  8821  8820 1
 7414  8823  8822 1
 7415  8824  8823 1
 7416  8825  8823 1
 7417  8826  8823 1
 7418  8827  8826 1
 7419  8829  8828 1
 7420  8830  8829 1
 7421  8831  8829 1
 7422  8832  8829 1
 7423  8833  8832 1
 7424  8835  8834 1
 7425  8836  8835 1
 7426  8837  8835 1
 7427  8838  8835 1
 7428  8839  8838 1
 7429  8841  8840 1
 7430  8842  8841 1
 7431  8843  8841 1
 7432  8844  8841 1
 7433  8845  8844 1
 7434  8847  8846 1
 7435  8848  8847 1
 7436  8849  8847 1
 7437  8850  8847 1
 7438  8851  8850 1
 7439  8853  8852 1
 7440  8854  8853 1
 7441  8855  8853 1
 7442  8856  8853 1
 7443  8857  8856 1
 7444  8859  8858 1
 7445  8860  8859 1
 7446  8861  8859 1
 7447  8862  8859 1
 7448  8863  8862 1
 7449  8865  8864 1
 7450  8866  8865 1
 7451  8867  8865 1
 7452  8868  8865 1
 7453  8869  8868 1
 7454  8871  8870 1
 7455  8872  8871 1
 7456  8873  8871 1
 7457  8874  8871 1
 7458  8875  8874 1
 7459  8877  8876 1
 7460  8878  8877 1
 7461  8879  8877 1
 7462  8880  8877 1
 7463  8881  8880 1
 7464  8883  8882 1
 7465  8884  8883 1
 7466  8885  8883 1
 7467  8886  8883 1
 7468  8887  8886 1
 7469  8889  8888 1
 7470  8890  8889 1
 7471  8891  8889 1
 7472  8892  8889 1
 7473  8893  8892 1
 7474  8895  8894 1
 7475  8896  8895 1
 7476  8897  8895 1
 7477  8898  8895 1
 7478  8899  8898 1
 7479  8901  8900 1
 7480  8902  8901 1
 7481  8903  8901 1
 7482  8904  8901 1
 7483  8905  8904 1
 7484  8907  8906 1
 7485  8908  8907 1
 7486  8909  8907 1
 7487  8910  8907 1
 7488  8911  8910 1
 7489  8913  8912 1
 7490  8914  8913 1
 7491  8915  8913 1
 7492  8916  8913 1
 7493  8917  8916 1
 7494  8919  8918 1
 7495  8920  8919 1
 7496  8921  8919 1
 7497  8922  8919 1
 7498  8923  8922 1
 7499  8925  8924 1
 7500  8926  8925 1
 7501  8927  8925 1
 7502  8928  8925 1
 7503  8929  8928 1
 7504  8931  8930 1
 7505  8932  8931 1
 7506  8933  8931 1
 7507  8934  8931 1
 7508  8935  8934 1
 7509  8937  8936 1
 7510  8938  8937 1
 7511  8939  8937 1
 7512  8940  8937 1
 7513  8941  8940 1
 7514  8943  8942 1
 7515  8944  8943 1
 7516  8945  8943 1
 7517  8946  8943 1
 7518  8947  8946 1
 7519  8949  8948 1
 7520  8950  8949 1
 7521  8951  8949 1
 7522  8952  8949 1
 7523  8953  8952 1
 7524  8955  8954 1
 7525  8956  8955 1
 7526  8957  8955 1
 7527  8958  8955 1
 7528  8959  8958 1
 7529  8961  8960 1
 7530  8962  8961 1
 7531  8963  8961 1
 7532  8964  8961 1
 7533  8965  8964 1
 7534  8967  8966 1
 7535  8968  8967 1
 7536  8969  8967 1
 7537  8970  8967 1
 7538  8971  8970 1
 7539  8973  8972 1
 7540  8974  8973 1
 7541  8975  8973 1
 7542  8976  8973 1
 7543  8977  8976 1
 7544  8979  8978 1
 7545  8980  8979 1
 7546  8981  8979 1
 7547  8982  8979 1
 7548  8983  8982 1
 7549  8985  8984 1
 7550  8986  8985 1
 7551  8987  8985 1
 7552  8988  8985 1
 7553  8989  8988 1
 7554  8991  8990 1
 7555  8992  8991 1
 7556  8993  8991 1
 7557  8994  8991 1
 7558  8995  8994 1
 7559  8997  8996 1
 7560  8998  8997 1
 7561  8999  8997 1
 7562  9000  8997 1
 7563  9001  9000 1
 7564  9003  9002 1
 7565  9004  9003 1
 7566  9005  9003 1
 7567  9006  9003 1
 7568  9007  9006 1
 7569  9009  9008 1
 7570  9010  9009 1
 7571  9011  9009 1
 7572  9012  9009 1
 7573  9013  9012 1
 7574  9015  9014 1
 7575  9016  9015 1
 7576  9017  9015 1
 7577  9018  9015 1
 7578  9019  9018 1
 7579  9021  9020 1
 7580  9022  9021 1
 7581  9023  9021 1
 7582  9024  9021 1
 7583  9025  9024 1
 7584  9027  9026 1
 7585  9028  9027 1
 7586  9029  9027 1
 7587  9030  9027 1
 7588  9031  9030 1
 7589  9033  9032 1
 7590  9034  9033 1
 7591  9035  9033 1
 7592  9036  9033 1
 7593  9037  9036 1
 7594  9039  9038 1
 7595  9040  9039 1
 7596  9041  9039 1
 7597  9042  9039 1
 7598  9043  9042 1
 7599  9045  9044 1
 7600  9046  9045 1
 7601  9047  9045 1
 7602  9048  9045 1
 7603  9049  9048 1
 7604  9051  9050 1
 7605  9052  9051 1
 7606  9053  9051 1
 7607  9054  9051 1
 7608  9055  9054 1
 7609  9057  9056 1
 7610  9058  9057 1
 7611  9059  9057 1
 7612  9060  9057 1
 7613  9061  9060 1
 7614  9063  9062 1
 7615  9064  9063 1
 7616  9065  9063 1
 7617  9066  9063 1
 7618  9067  9066 1
 7619  9069  9068 1
 7620  9070  9069 1
 7621  9071  9069 1
 7622  9072  9069 1
 7623  9073  9072 1
 7624  9075  9074 1
 7625  9076  9075 1
 7626  9077  9075 1
 7627  9078  9075 1
 7628  9079  9078 1
 7629  9081  9080 1
 7630  9082  9081 1
 7631  9083  9081 1
 7632  9084  9081 1
 7633  9085  9084 1
 7634  9087  9086 1
 7635  9088  9087 1
 7636  9089  9087 1
 7637  9090  9087 1
 7638  9091  9090 1
 7639  9093  9092 1
 7640  9094  9093 1
 7641  9095  9093 1
 7642  9096  9093 1
 7643  9097  9096 1
 7644  9099  9098 1
 7645  9100  9099 1
 7646  9101  9099 1
 7647  9102  9099 1
 7648  9103  9102 1
 7649  9105  9104 1
 7650  9106  9105 1
 7651  9107  9105 1
 7652  9108  9105 1
 7653  9109  9108 1
 7654  9111  9110 1
 7655  9112  9111 1
 7656  9113  9111 1
 7657  9114  9111 1
 7658  9115  9114 1
 7659  9117  9116 1
 7660  9118  9117 1
 7661  9119  9117 1
 7662  9120  9117 1
 7663  9121  9120 1
 7664  9123  9122 1
 7665  9124  9123 1
 7666  9125  9123 1
 7667  9126  9123 1
 7668  9127  9126 1
 7669  9129  9128 1
 7670  9130  9129 1
 7671  9131  9129 1
 7672  9132  9129 1
 7673  9133  9132 1
 7674  9135  9134 1
 7675  9136  9135 1
 7676  9137  9135 1
 7677  9138  9135 1
 7678  9139  9138 1
 7679  9141  9140 1
 7680  9142  9141 1
 7681  9143  9141 1
 7682  9144  9141 1
 7683  9145  9144 1
 7684  9147  9146 1
 7685  9148  9147 1
 7686  9149  9147 1
 7687  9150  9147 1
 7688  9151  9150 1
 7689  9153  9152 1
 7690  9154  9153 1
 7691  9155  9153 1
 7692  9156  9153 1
 7693  9157  9156 1
 7694  9159  9158 1
 7695  9160  9159 1
 7696  9161  9159 1
 7697  9162  9159 1
 7698  9163  9162 1
 7699  9165  9164 1
 7700  9166  9165 1
 7701  9167  9165 1
 7702  9168  9165 1
 7703  9169  9168 1
 7704  9171  9170 1
 7705  9172  9171 1
 7706  9173  9171 1
 7707  9174  9171 1
 7708  9175  9174 1
 7709  9177  9176 1
 7710  9178  9177 1
 7711  9179  9177 1
 7712  9180  9177 1
 7713  9181  9180 1
 7714  9183  9182 1
 7715  9184  9183 1
 7716  9185  9183 1
 7717  9186  9183 1
 7718  9187  9186 1
 7719  9189  9188 1
 7720  9190  9189 1
 7721  9191  9189 1
 7722  9192  9189 1
 7723  9193  9192 1
 7724  9195  9194 1
 7725  9196  9195 1
 7726  9197  9195 1
 7727  9198  9195 1
 7728  9199  9198 1
 7729  9201  9200 1
 7730  9202  9201 1
 7731  9203  9201 1
 7732  9204  9201 1
 7733  9205  9204 1
 7734  9207  9206 1
 7735  9208  9207 1
 7736  9209  9207 1
 7737  9210  9207 1
 7738  9211  9210 1
 7739  9213  9212 1
 7740  9214  9213 1
 7741  9215  9213 1
 7742  9216  9213 1
 7743  9217  9216 1
 7744  9219  9218 1
 7745  9220  9219 1
 7746  9221  9219 1
 7747  9222  9219 1
 7748  9223  9222 1
 7749  9225  9224 1
 7750  9226  9225 1
 7751  9227  9225 1
 7752  9228  9225 1
 7753  9229  9228 1
 7754  9231  9230 1
 7755  9232  9231 1
 7756  9233  9231 1
 7757  9234  9231 1
 7758  9235  9234 1
 7759  9237  9236 1
 7760  9238  9237 1
 7761  9239  9237 1
 7762  9240  9237 1
 7763  9241  9240 1
 7764  9243  9242 1
 7765  9244  9243 1
 7766  9245  9243 1
 7767  9246  9243 1
 7768  9247  9246 1
 7769  9249  9248 1
 7770  9250  9249 1
 7771  9251  9249 1
 7772  9252  9249 1
 7773  9253  9252 1
 7774  9255  9254 1
 7775  9256  9255 1
 7776  9257  9255 1
 7777  9258  9255 1
 7778  9259  9258 1
 7779  9261  9260 1
 7780  9262  9261 1
 7781  9263  9261 1
 7782  9264  9261 1
 7783  9265  9264 1
 7784  9267  9266 1
 7785  9268  9267 1
 7786  9269  9267 1
 7787  9270  9267 1
 7788  9271  9270 1
 7789  9273  9272 1
 7790  9274  9273 1
 7791  9275  9273 1
 7792  9276  9273 1
 7793  9277  9276 1
 7794  9279  9278 1
 7795  9280  9279 1
 7796  9281  9279 1
 7797  9282  9279 1
 7798  9283  9282 1
 7799  9285  9284 1
 7800  9286  9285 1
 7801  9287  9285 1
 7802  9288  9285 1
 7803  9289  9288 1
 7804  9291  9290 1
 7805  9292  9291 1
 7806  9293  9291 1
 7807  9294  9291 1
 7808  9295  9294 1
 7809  9297  9296 1
 7810  9298  9297 1
 7811  9299  9297 1
 7812  9300  9297 1
 7813  9301  9300 1
 7814  9303  9302 1
 7815  9304  9303 1
 7816  9305  9303 1
 7817  9306  9303 1
 7818  9307  9306 1
 7819  9309  9308 1
 7820  9310  9309 1
 7821  9311  9309 1
 7822  9312  9309 1
 7823  9313  9312 1
 7824  9315  9314 1
 7825  9316  9315 1
 7826  9317  9315 1
 7827  9318  9315 1
 7828  9319  9318 1
 7829  9321  9320 1
 7830  9322  9321 1
 7831  9323  9321 1
 7832  9324  9321 1
 7833  9325  9324 1
 7834  9327  9326 1
 7835  9328  9327 1
 7836  9329  9327 1
 7837  9330  9327 1
 7838  9331  9330 1
 7839  9333  9332 1
 7840  9334  9333 1
 7841  9335  9333 1
 7842  9336  9333 1
 7843  9337  9336 1
 7844  9339  9338 1
 7845  9340  9339 1
 7846  9341  9339 1
 7847  9342  9339 1
 7848  9343  9342 1
 7849  9345  9344 1
 7850  9346  9345 1
 7851  9347  9345 1
 7852  9348  9345 1
 7853  9349  9348 1
 7854  9351  9350 1
 7855  9352  9351 1
 7856  9353  9351 1
 7857  9354  9351 1
 7858  9355  9354 1
 7859  9357  9356 1
 7860  9358  9357 1
 7861  9359  9357 1
 7862  9360  9357 1
 7863  9361  9360 1
 7864  9363  9362 1
 7865  9364  9363 1
 7866  9365  9363 1
 7867  9366  9363 1
 7868  9367  9366 1
 7869  9369  9368 1
 7870  9370  9369 1
 7871  9371  9369 1
 7872  9372  9369 1
 7873  9373  9372 1
 7874  9375  9374 1
 7875  9376  9375 1
 7876  9377  9375 1
 7877  9378  9375 1
 7878  9379  9378 1
 7879  9381  9380 1
 7880  9382  9381 1
 7881  9383  9381 1
 7882  9384  9381 1
 7883  9385  9384 1
 7884  9387  9386 1
 7885  9388  9387 1
 7886  9389  9387 1
 7887  9390  9387 1
 7888  9391  9390 1
 7889  9393  9392 1
 7890  9394  9393 1
 7891  9395  9393 1
 7892  9396  9393 1
 7893  9397  9396 1
 7894  9399  9398 1
 7895  9400  9399 1
 7896  9401  9399 1
 7897  9402  9399 1
 7898  9403  9402 1
 7899  9405  9404 1
 7900  9406  9405 1
 7901  9407  9405 1
 7902  9408  9405 1
 7903  9409  9408 1
 7904  9411  9410 1
 7905  9412  9411 1
 7906  9413  9411 1
 7907  9414  9411 1
 7908  9415  9414 1
 7909  9417  9416 1
 7910  9418  9417 1
 7911  9419  9417 1
 7912  9420  9417 1
 7913  9421  9420 1
 7914  9423  9422 1
 7915  9424  9423 1
 7916  9425  9423 1
 7917  9426  9423 1
 7918  9427  9426 1
 7919  9429  9428 1
 7920  9430  9429 1
 7921  9431  9429 1
 7922  9432  9429 1
 7923  9433  9432 1
 7924  9435  9434 1
 7925  9436  9435 1
 7926  9437  9435 1
 7927  9438  9435 1
 7928  9439  9438 1
 7929  9441  9440 1
 7930  9442  9441 1
 7931  9443  9441 1
 7932  9444  9441 1
 7933  9445  9444 1
 7934  9447  9446 1
 7935  9448  9447 1
 7936  9449  9447 1
 7937  9450  9447 1
 7938  9451  9450 1
 7939  9453  9452 1
 7940  9454  9453 1
 7941  9455  9453 1
 7942  9456  9453 1
 7943  9457  9456 1
 7944  9459  9458 1
 7945  9460  9459 1
 7946  9461  9459 1
 7947  9462  9459 1
 7948  9463  9462 1
 7949  9465  9464 1
 7950  9466  9465 1
 7951  9467  9465 1
 7952  9468  9465 1
 7953  9469  9468 1
 7954  9471  9470 1
 7955  9472  9471 1
 7956  9473  9471 1
 7957  9474  9471 1
 7958  9475  9474 1
 7959  9477  9476 1
 7960  9478  9477 1
 7961  9479  9477 1
 7962  9480  9477 1
 7963  9481  9480 1
 7964  9483  9482 1
 7965  9484  9483 1
 7966  9485  9483 1
 7967  9486  9483 1
 7968  9487  9486 1
 7969  9489  9488 1
 7970  9490  9489 1
 7971  9491  9489 1
 7972  9492  9489 1
 7973  9493  9492 1
 7974  9495  9494 1
 7975  9496  9495 1
 7976  9497  9495 1
 7977  9498  9495 1
 7978  9499  9498 1
 7979  9501  9500 1
 7980  9502  9501 1
 7981  9503  9501 1
 7982  9504  9501 1
 7983  9505  9504 1
 7984  9507  9506 1
 7985  9508  9507 1
 7986  9509  9507 1
 7987  9510  9507 1
 7988  9511  9510 1
 7989  9513  9512 1
 7990  9514  9513 1
 7991  9515  9513 1
 7992  9516  9513 1
 7993  9517  9516 1
 7994  9519  9518 1
 7995  9520  9519 1
 7996  9521  9519 1
 7997  9522  9519 1
 7998  9523  9522 1
 7999  9525  9524 1
 8000  9526  9525 1
 8001  9527  9525 1
 8002  9528  9525 1
 8003  9529  9528 1
 8004  9531  9530 1
 8005  9532  9531 1
 8006  9533  9531 1
 8007  9534  9531 1
 8008  9535  9534 1
 8009  9537  9536 1
 8010  9538  9537 1
 8011  9539  9537 1
 8012  9540  9537 1
 8013  9541  9540 1
 8014  9543  9542 1
 8015  9544  9543 1
 8016  9545  9543 1
 8017  9546  9543 1
 8018  9547  9546 1
 8019  9549  9548 1
 8020  9550  9549 1
 8021  9551  9549 1
 8022  9552  9549 1
 8023  9553  9552 1
 8024  9555  9554 1
 8025  9556  9555 1
 8026  9557  9555 1
 8027  9558  9555 1
 8028  9559  9558 1
 8029  9561  9560 1
 8030  9562  9561 1
 8031  9563  9561 1
 8032  9564  9561 1
 8033  9565  9564 1
 8034  9567  9566 1
 8035  9568  9567 1
 8036  9569  9567 1
 8037  9570  9567 1
 8038  9571  9570 1
 8039  9573  9572 1
 8040  9574  9573 1
 8041  9575  9573 1
 8042  9576  9573 1
 8043  9577  9576 1
 8044  9579  9578 1
 8045  9580  9579 1
 8046  9581  9579 1
 8047  9582  9579 1
 8048  9583  9582 1
 8049  9585  9584 1
 8050  9586  9585 1
 8051  9587  9585 1
 8052  9588  9585 1
 8053  9589  9588 1
 8054  9591  9590 1
 8055  9592  9591 1
 8056  9593  9591 1
 8057  9594  9591 1
 8058  9595  9594 1
 8059  9597  9596 1
 8060  9598  9597 1
 8061  9599  9597 1
 8062  9600  9597 1
 8063  9601  9600 1
 8064  9603  9602 1
 8065  9604  9603 1
 8066  9605  9603 1
 8067  9606  9603 1
 8068  9607  9606 1
 8069  9609  9608 1
 8070  9610  9609 1
 8071  9611  9609 1
 8072  9612  9609 1
 8073  9613  9612 1
 8074  9615  9614 1
 8075  9616  9615 1
 8076  9617  9615 1
 8077  9618  9615 1
 8078  9619  9618 1
 8079  9621  9620 1
 8080  9622  9621 1
 8081  9623  9621 1
 8082  9624  9621 1
 8083  9625  9624 1
 8084  9627  9626 1
 8085  9628  9627 1
 8086  9629  9627 1
 8087  9630  9627 1
 8088  9631  9630 1
 8089  9633  9632 1
 8090  9634  9633 1
 8091  9635  9633 1
 8092  9636  9633 1
 8093  9637  9636 1
 8094  9639  9638 1
 8095  9640  9639 1
 8096  9641  9639 1
 8097  9642  9639 1
 8098  9643  9642 1
 8099  9645  9644 1
 8100  9646  9645 1
 8101  9647  9645 1
 8102  9648  9645 1
 8103  9649  9648 1
 8104  9651  9650 1
 8105  9652  9651 1
 8106  9653  9651 1
 8107  9654  9651 1
 8108  9655  9654 1
 8109  9657  9656 1
 8110  9658  9657 1
 8111  9659  9657 1
 8112  9660  9657 1
 8113  9661  9660 1
 8114  9663  9662 1
 8115  9664  9663 1
 8116  9665  9663 1
 8117  9666  9663 1
 8118  9667  9666 1
 8119  9669  9668 1
 8120  9670  9669 1
 8121  9671  9669 1
 8122  9672  9669 1
 8123  9673  9672 1
 8124  9675  9674 1
 8125  9676  9675 1
 8126  9677  9675 1
 8127  9678  9675 1
 8128  9679  9678 1
 8129  9681  9680 1
 8130  9682  9681 1
 8131  9683  9681 1
 8132  9684  9681 1
 8133  9685  9684 1
 8134  9687  9686 1
 8135  9688  9687 1
 8136  9689  9687 1
 8137  9690  9687 1
 8138  9691  9690 1
 8139  9693  9692 1
 8140  9694  9693 1
 8141  9695  9693 1
 8142  9696  9693 1
 8143  9697  9696 1
 8144  9699  9698 1
 8145  9700  9699 1
 8146  9701  9699 1
 8147  9702  9699 1
 8148  9703  9702 1
 8149  9705  9704 1
 8150  9706  9705 1
 8151  9707  9705 1
 8152  9708  9705 1
 8153  9709  9708 1
 8154  9711  9710 1
 8155  9712  9711 1
 8156  9713  9711 1
 8157  9714  9711 1
 8158  9715  9714 1
 8159  9717  9716 1
 8160  9718  9717 1
 8161  9719  9717 1
 8162  9720  9717 1
 8163  9721  9720 1
 8164  9723  9722 1
 8165  9724  9723 1
 8166  9725  9723 1
 8167  9726  9723 1
 8168  9727  9726 1
 8169  9729  9728 1
 8170  9730  9729 1
 8171  9731  9729 1
 8172  9732  9729 1
 8173  9733  9732 1
 8174  9735  9734 1
 8175  9736  9735 1
 8176  9737  9735 1
 8177  9738  9735 1
 8178  9739  9738 1
 8179  9741  9740 1
 8180  9742  9741 1
 8181  9743  9741 1
 8182  9744  9741 1
 8183  9745  9744 1
 8184  9747  9746 1
 8185  9748  9747 1
 8186  9749  9747 1
 8187  9750  9747 1
 8188  9751  9750 1
 8189  9753  9752 1
 8190  9754  9753 1
 8191  9755  9753 1
 8192  9756  9753 1
 8193  9757  9756 1
 8194  9759  9758 1
 8195  9760  9759 1
 8196  9761  9759 1
 8197  9762  9759 1
 8198  9763  9762 1
 8199  9765  9764 1
 8200  9766  9765 1
 8201  9767  9765 1
 8202  9768  9765 1
 8203  9769  9768 1
 8204  9771  9770 1
 8205  9772  9771 1
 8206  9773  9771 1
 8207  9774  9771 1
 8208  9775  9774 1
 8209  9777  9776 1
 8210  9778  9777 1
 8211  9779  9777 1
 8212  9780  9777 1
 8213  9781  9780 1
 8214  9783  9782 1
 8215  9784  9783 1
 8216  9785  9783 1
 8217  9786  9783 1
 8218  9787  9786 1
 8219  9789  9788 1
 8220  9790  9789 1
 8221  9791  9789 1
 8222  9792  9789 1
 8223  9793  9792 1
 8224  9795  9794 1
 8225  9796  9795 1
 8226  9797  9795 1
 8227  9798  9795 1
 8228  9799  9798 1
 8229  9801  9800 1
 8230  9802  9801 1
 8231  9803  9801 1
 8232  9804  9801 1
 8233  9805  9804 1
 8234  9807  9806 1
 8235  9808  9807 1
 8236  9809  9807 1
 8237  9810  9807 1
 8238  9811  9810 1
 8239  9813  9812 1
 8240  9814  9813 1
 8241  9815  9813 1
 8242  9816  9813 1
 8243  9817  9816 1
 8244  9819  9818 1
 8245  9820  9819 1
 8246  9821  9819 1
 8247  9822  9819 1
 8248  9823  9822 1
 8249  9825  9824 1
 8250  9826  9825 1
 8251  9827  9825 1
 8252  9828  9825 1
 8253  9829  9828 1
 8254  9831  9830 1
 8255  9832  9831 1
 8256  9833  9831 1
 8257  9834  9831 1
 8258  9835  9834 1
 8259  9837  9836 1
 8260  9838  9837 1
 8261  9839  9837 1
 8262  9840  9837 1
 8263  9841  9840 1
 8264  9843  9842 1
 8265  9844  9843 1
 8266  9845  9843 1
 8267  9846  9843 1
 8268  9847  9846 1
 8269  9849  9848 1
 8270  9850  9849 1
 8271  9851  9849 1
 8272  9852  9849 1
 8273  9853  9852 1
 8274  9855  9854 1
 8275  9856  9855 1
 8276  9857  9855 1
 8277  9858  9855 1
 8278  9859  9858 1
 8279  9861  9860 1
 8280  9862  9861 1
 8281  9863  9861 1
 8282  9864  9861 1
 8283  9865  9864 1
 8284  9867  9866 1
 8285  9868  9867 1
 8286  9869  9867 1
 8287  9870  9867 1
 8288  9871  9870 1
 8289  9873  9872 1
 8290  9874  9873 1
 8291  9875  9873 1
 8292  9876  9873 1
 8293  9877  9876 1
 8294  9879  9878 1
 8295  9880  9879 1
 8296  9881  9879 1
 8297  9882  9879 1
 8298  9883  9882 1
 8299  9885  9884 1
 8300  9886  9885 1
 8301  9887  9885 1
 8302  9888  9885 1
 8303  9889  9888 1
 8304  9891  9890 1
 8305  9892  9891 1
 8306  9893  9891 1
 8307  9894  9891 1
 8308  9895  9894 1
 8309  9897  9896 1
 8310  9898  9897 1
 8311  9899  9897 1
 8312  9900  9897 1
 8313  9901  9900 1
 8314  9903  9902 1
 8315  9904  9903 1
 8316  9905  9903 1
 8317  9906  9903 1
 8318  9907  9906 1
 8319  9909  9908 1
 8320  9910  9909 1
 8321  9911  9909 1
 8322  9912  9909 1
 8323  9913  9912 1
 8324  9915  9914 1
 8325  9916  9915 1
 8326  9917  9915 1
 8327  9918  9915 1
 8328  9919  9918 1
 8329  9921  9920 1
 8330  9922  9921 1
 8331  9923  9921 1
 8332  9924  9921 1
 8333  9925  9924 1
 8334  9927  9926 1
 8335  9928  9927 1
 8336  9929  9927 1
 8337  9930  9927 1
 8338  9931  9930 1
 8339  9933  9932 1
 8340  9934  9933 1
 8341  9935  9933 1
 8342  9936  9933 1
 8343  9937  9936 1
 8344  9939  9938 1
 8345  9940  9939 1
 8346  9941  9939 1
 8347  9942  9939 1
 8348  9943  9942 1
 8349  9945  9944 1
 8350  9946  9945 1
 8351  9947  9945 1
 8352  9948  9945 1
 8353  9949  9948 1
 8354  9951  9950 1
 8355  9952  9951 1
 8356  9953  9951 1
 8357  9954  9951 1
 8358  9955  9954 1
 8359  9957  9956 1
 8360  9958  9957 1
 8361  9959  9957 1
 8362  9960  9957 1
 8363  9961  9960 1
 8364  9963  9962 1
 8365  9964  9963 1
 8366  9965  9963 1
 8367  9966  9963 1
 8368  9967  9966 1
 8369  9969  9968 1
 8370  9970  9969 1
 8371  9971  9969 1
 8372  9972  9969 1
 8373  9973  9972 1
 8374  9975  9974 1
 8375  9976  9975 1
 8376  9977  9975 1
 8377  9978  9975 1
 8378  9979  9978 1
 8379  9981  9980 1
 8380  9982  9981 1
 8381  9983  9981 1
 8382  9984  9981 1
 8383  9985  9984 1
 8384  9987  9986 1
 8385  9988  9987 1
 8386  9989  9987 1
 8387  9990  9987 1
 8388  9991  9990 1
 8389  9993  9992 1
 8390  9994  9993 1
 8391  9995  9993 1
 8392  9996  9993 1
 8393  9997  9996 1
 8394  9999  9998 1
 8395 10000  9999 1
 8396 10001  9999 1
 8397 10002  9999 1
 8398 10003 10002 1
 8399 10005 10004 1
 8400 10006 10005 1
 8401 10007 10005 1
 8402 10008 10005 1
 8403 10009 10008 1
 8404 10011 10010 1
 8405 10012 10011 1
 8406 10013 10011 1
 8407 10014 10011 1
 8408 10015 10014 1
 8409 10017 10016 1
 8410 10018 10017 1
 8411 10019 10017 1
 8412 10020 10017 1
 8413 10021 10020 1
 8414 10023 10022 1
 8415 10024 10023 1
 8416 10025 10023 1
 8417 10026 10023 1
 8418 10027 10026 1
 8419 10029 10028 1
 8420 10030 10029 1
 8421 10031 10029 1
 8422 10032 10029 1
 8423 10033 10032 1
 8424 10035 10034 1
 8425 10036 10035 1
 8426 10037 10035 1
 8427 10038 10035 1
 8428 10039 10038 1
 8429 10041 10040 1
 8430 10042 10041 1
 8431 10043 10041 1
 8432 10044 10041 1
 8433 10045 10044 1
 8434 10047 10046 1
 8435 10048 10047 1
 8436 10049 10047 1
 8437 10050 10047 1
 8438 10051 10050 1
 8439 10053 10052 1
 8440 10054 10053 1
 8441 10055 10053 1
 8442 10056 10053 1
 8443 10057 10056 1
 8444 10059 10058 1
 8445 10060 10059 1
 8446 10061 10059 1
 8447 10062 10059 1
 8448 10063 10062 1
 8449 10065 10064 1
 8450 10066 10065 1
 8451 10067 10065 1
 8452 10068 10065 1
 8453 10069 10068 1
 8454 10071 10070 1
 8455 10072 10071 1
 8456 10073 10071 1
 8457 10074 10071 1
 8458 10075 10074 1
 8459 10077 10076 1
 8460 10078 10077 1
 8461 10079 10077 1
 8462 10080 10077 1
 8463 10081 10080 1
 8464 10083 10082 1
 8465 10084 10083 1
 8466 10085 10083 1
 8467 10086 10083 1
 8468 10087 10086 1
 8469 10089 10088 1
 8470 10090 10089 1
 8471 10091 10089 1
 8472 10092 10089 1
 8473 10093 10092 1
 8474 10095 10094 1
 8475 10096 10095 1
 8476 10097 10095 1
 8477 10098 10095 1
 8478 10099 10098 1
 8479 10101 10100 1
 8480 10102 10101 1
 8481 10103 10101 1
 8482 10104 10101 1
 8483 10105 10104 1
 8484 10107 10106 1
 8485 10108 10107 1
 8486 10109 10107 1
 8487 10110 10107 1
 8488 10111 10110 1
 8489 10113 10112 1
 8490 10114 10113 1
 8491 10115 10113 1
 8492 10116 10113 1
 8493 10117 10116 1
 8494 10119 10118 1
 8495 10120 10119 1
 8496 10121 10119 1
 8497 10122 10119 1
 8498 10123 10122 1
 8499 10125 10124 1
 8500 10126 10125 1
 8501 10127 10125 1
 8502 10128 10125 1
 8503 10129 10128 1
 8504 10131 10130 1
 8505 10132 10131 1
 8506 10133 10131 1
 8507 10134 10131 1
 8508 10135 10134 1
 8509 10137 10136 1
 8510 10138 10137 1
 8511 10139 10137 1
 8512 10140 10137 1
 8513 10141 10140 1
 8514 10143 10142 1
 8515 10144 10143 1
 8516 10145 10143 1
 8517 10146 10143 1
 8518 10147 10146 1
 8519 10149 10148 1
 8520 10150 10149 1
 8521 10151 10149 1
 8522 10152 10149 1
 8523 10153 10152 1
 8524 10155 10154 1
 8525 10156 10155 1
 8526 10157 10155 1
 8527 10158 10155 1
 8528 10159 10158 1
 8529 10161 10160 1
 8530 10162 10161 1
 8531 10163 10161 1
 8532 10164 10161 1
 8533 10165 10164 1
 8534 10167 10166 1
 8535 10168 10167 1
 8536 10169 10167 1
 8537 10170 10167 1
 8538 10171 10170 1
 8539 10173 10172 1
 8540 10174 10173 1
 8541 10175 10173 1
 8542 10176 10173 1
 8543 10177 10176 1
 8544 10179 10178 1
 8545 10180 10179 1
 8546 10181 10179 1
 8547 10182 10179 1
 8548 10183 10182 1
 8549 10185 10184 1
 8550 10186 10185 1
 8551 10187 10185 1
 8552 10188 10185 1
 8553 10189 10188 1
 8554 10191 10190 1
 8555 10192 10191 1
 8556 10193 10191 1
 8557 10194 10191 1
 8558 10195 10194 1
 8559 10197 10196 1
 8560 10198 10197 1
 8561 10199 10197 1
 8562 10200 10197 1
 8563 10201 10200 1
 8564 10203 10202 1
 8565 10204 10203 1
 8566 10205 10203 1
 8567 10206 10203 1
 8568 10207 10206 1
 8569 10209 10208 1
 8570 10210 10209 1
 8571 10211 10209 1
 8572 10212 10209 1
 8573 10213 10212 1
 8574 10215 10214 1
 8575 10216 10215 1
 8576 10217 10215 1
 8577 10218 10215 1
 8578 10219 10218 1
 8579 10221 10220 1
 8580 10222 10221 1
 8581 10223 10221 1
 8582 10224 10221 1
 8583 10225 10224 1
 8584 10227 10226 1
 8585 10228 10227 1
 8586 10229 10227 1
 8587 10230 10227 1
 8588 10231 10230 1
 8589 10233 10232 1
 8590 10234 10233 1
 8591 10235 10233 1
 8592 10236 10233 1
 8593 10237 10236 1
 8594 10239 10238 1
 8595 10240 10239 1
 8596 10241 10239 1
 8597 10242 10239 1
 8598 10243 10242 1
 8599 10245 10244 1
 8600 10246 10245 1
 8601 10247 10245 1
 8602 10248 10245 1
 8603 10249 10248 1
 8604 10251 10250 1
 8605 10252 10251 1
 8606 10253 10251 1
 8607 10254 10251 1
 8608 10255 10254 1
 8609 10257 10256 1
 8610 10258 10257 1
 8611 10259 10257 1
 8612 10260 10257 1
 8613 10261 10260 1
 8614 10263 10262 1
 8615 10264 10263 1
 8616 10265 10263 1
 8617 10266 10263 1
 8618 10267 10266 1
 8619 10269 10268 1
 8620 10270 10269 1
 8621 10271 10269 1
 8622 10272 10269 1
 8623 10273 10272 1
 8624 10275 10274 1
 8625 10276 10275 1
 8626 10277 10275 1
 8627 10278 10275 1
 8628 10279 10278 1
 8629 10281 10280 1
 8630 10282 10281 1
 8631 10283 10281 1
 8632 10284 10281 1
 8633 10285 10284 1
 8634 10287 10286 1
 8635 10288 10287 1
 8636 10289 10287 1
 8637 10290 10287 1
 8638 10291 10290 1
 8639 10293 10292 1
 8640 10294 10293 1
 8641 10295 10293 1
 8642 10296 10293 1
 8643 10297 10296 1
 8644 10299 10298 1
 8645 10300 10299 1
 8646 10301 10299 1
 8647 10302 10299 1
 8648 10303 10302 1
 8649 10305 10304 1
 8650 10306 10305 1
 8651 10307 10305 1
 8652 10308 10305 1
 8653 10309 10308 1
 8654 10311 10310 1
 8655 10312 10311 1
 8656 10313 10311 1
 8657 10314 10311 1
 8658 10315 10314 1
 8659 10317 10316 1
 8660 10318 10317 1
 8661 10319 10317 1
 8662 10320 10317 1
 8663 10321 10320 1
 8664 10323 10322 1
 8665 10324 10323 1
 8666 10325 10323 1
 8667 10326 10323 1
 8668 10327 10326 1
 8669 10329 10328 1
 8670 10330 10329 1
 8671 10331 10329 1
 8672 10332 10329 1
 8673 10333 10332 1
 8674 10335 10334 1
 8675 10336 10335 1
 8676 10337 10335 1
 8677 10338 10335 1
 8678 10339 10338 1
 8679 10341 10340 1
 8680 10342 10341 1
 8681 10343 10341 1
 8682 10344 10341 1
 8683 10345 10344 1
 8684 10347 10346 1
 8685 10348 10347 1
 8686 10349 10347 1
 8687 10350 10347 1
 8688 10351 10350 1
 8689 10353 10352 1
 8690 10354 10353 1
 8691 10355 10353 1
 8692 10356 10353 1
 8693 10357 10356 1
 8694 10359 10358 1
 8695 10360 10359 1
 8696 10361 10359 1
 8697 10362 10359 1
 8698 10363 10362 1
 8699 10365 10364 1
 8700 10366 10365 1
 8701 10367 10365 1
 8702 10368 10365 1
 8703 10369 10368 1
 8704 10371 10370 1
 8705 10372 10371 1
 8706 10373 10371 1
 8707 10374 10371 1
 8708 10375 10374 1
 8709 10377 10376 1
 8710 10378 10377 1
 8711 10379 10377 1
 8712 10380 10377 1
 8713 10381 10380 1
 8714 10383 10382 1
 8715 10384 10383 1
 8716 10385 10383 1
 8717 10386 10383 1
 8718 10387 10386 1
 8719 10389 10388 1
 8720 10390 10389 1
 8721 10391 10389 1
 8722 10392 10389 1
 8723 10393 10392 1
 8724 10395 10394 1
 8725 10396 10395 1
 8726 10397 10395 1
 8727 10398 10395 1
 8728 10399 10398 1
 8729 10401 10400 1
 8730 10402 10401 1
 8731 10403 10401 1
 8732 10404 10401 1
 8733 10405 10404 1
 8734 10407 10406 1
 8735 10408 10407 1
 8736 10409 10407 1
 8737 10410 10407 1
 8738 10411 10410 1
 8739 10413 10412 1
 8740 10414 10413 1
 8741 10415 10413 1
 8742 10416 10413 1
 8743 10417 10416 1
 8744 10419 10418 1
 8745 10420 10419 1
 8746 10421 10419 1
 8747 10422 10419 1
 8748 10423 10422 1
 8749 10425 10424 1
 8750 10426 10425 1
 8751 10427 10425 1
 8752 10428 10425 1
 8753 10429 10428 1
 8754 10431 10430 1
 8755 10432 10431 1
 8756 10433 10431 1
 8757 10434 10431 1
 8758 10435 10434 1
 8759 10437 10436 1
 8760 10438 10437 1
 8761 10439 10437 1
 8762 10440 10437 1
 8763 10441 10440 1
 8764 10443 10442 1
 8765 10444 10443 1
 8766 10445 10443 1
 8767 10446 10443 1
 8768 10447 10446 1
 8769 10449 10448 1
 8770 10450 10449 1
 8771 10451 10449 1
 8772 10452 10449 1
 8773 10453 10452 1
 8774 10455 10454 1
 8775 10456 10455 1
 8776 10457 10455 1
 8777 10458 10455 1
 8778 10459 10458 1
 8779 10461 10460 1
 8780 10462 10461 1
 8781 10463 10461 1
 8782 10464 10461 1
 8783 10465 10464 1
 8784 10467 10466 1
 8785 10468 10467 1
 8786 10469 10467 1
 8787 10470 10467 1
 8788 10471 10470 1
 8789 10473 10472 1
 8790 10474 10473 1
 8791 10475 10473 1
 8792 10476 10473 1
 8793 10477 10476 1
 8794 10479 10478 1
 8795 10480 10479 1
 8796 10481 10479 1
 8797 10482 10479 1
 8798 10483 10482 1
 8799 10485 10484 1
 8800 10486 10485 1
 8801 10487 10485 1
 8802 10488 10485 1
 8803 10489 10488 1
 8804 10491 10490 1
 8805 10492 10491 1
 8806 10493 10491 1
 8807 10494 10491 1
 8808 10495 10494 1
 8809 10497 10496 1
 8810 10498 10497 1
 8811 10499 10497 1
 8812 10500 10497 1
 8813 10501 10500 1
 8814 10503 10502 1
 8815 10504 10503 1
 8816 10505 10503 1
 8817 10506 10503 1
 8818 10507 10506 1
 8819 10509 10508 1
 8820 10510 10509 1
 8821 10511 10509 1
 8822 10512 10509 1
 8823 10513 10512 1
 8824 10515 10514 1
 8825 10516 10515 1
 8826 10517 10515 1
 8827 10518 10515 1
 8828 10519 10518 1
 8829 10521 10520 1
 8830 10522 10521 1
 8831 10523 10521 1
 8832 10524 10521 1
 8833 10525 10524 1
 8834 10527 10526 1
 8835 10528 10527 1
 8836 10529 10527 1
 8837 10530 10527 1
 8838 10531 10530 1
 8839 10533 10532 1
 8840 10534 10533 1
 8841 10535 10533 1
 8842 10536 10533 1
 8843 10537 10536 1
 8844 10539 10538 1
 8845 10540 10539 1
 8846 10541 10539 1
 8847 10542 10539 1
 8848 10543 10542 1
 8849 10545 10544 1
 8850 10546 10545 1
 8851 10547 10545 1
 8852 10548 10545 1
 8853 10549 10548 1
 8854 10551 10550 1
 8855 10552 10551 1
 8856 10553 10551 1
 8857 10554 10551 1
 8858 10555 10554 1
 8859 10557 10556 1
 8860 10558 10557 1
 8861 10559 10557 1
 8862 10560 10557 1
 8863 10561 10560 1
 8864 10563 10562 1
 8865 10564 10563 1
 8866 10565 10563 1
 8867 10566 10563 1
 8868 10567 10566 1
 8869 10569 10568 1
 8870 10570 10569 1
 8871 10571 10569 1
 8872 10572 10569 1
 8873 10573 10572 1
 8874 10575 10574 1
 8875 10576 10575 1
 8876 10577 10575 1
 8877 10578 10575 1
 8878 10579 10578 1
 8879 10581 10580 1
 8880 10582 10581 1
 8881 10583 10581 1
 8882 10584 10581 1
 8883 10585 10584 1
 8884 10587 10586 1
 8885 10588 10587 1
 8886 10589 10587 1
 8887 10590 10587 1
 8888 10591 10590 1
 8889 10593 10592 1
 8890 10594 10593 1
 8891 10595 10593 1
 8892 10596 10593 1
 8893 10597 10596 1
 8894 10599 10598 1
 8895 10600 10599 1
 8896 10601 10599 1
 8897 10602 10599 1
 8898 10603 10602 1
 8899 10605 10604 1
 8900 10606 10605 1
 8901 10607 10605 1
 8902 10608 10605 1
 8903 10609 10608 1
 8904 10611 10610 1
 8905 10612 10611 1
 8906 10613 10611 1
 8907 10614 10611 1
 8908 10615 10614 1
 8909 10617 10616 1
 8910 10618 10617 1
 8911 10619 10617 1
 8912 10620 10617 1
 8913 10621 10620 1
 8914 10623 10622 1
 8915 10624 10623 1
 8916 10625 10623 1
 8917 10626 10623 1
 8918 10627 10626 1
 8919 10629 10628 1
 8920 10630 10629 1
 8921 10631 10629 1
 8922 10632 10629 1
 8923 10633 10632 1
 8924 10635 10634 1
 8925 10636 10635 1
 8926 10637 10635 1
 8927 10638 10635 1
 8928 10639 10638 1
 8929 10641 10640 1
 8930 10642 10641 1
 8931 10643 10641 1
 8932 10644 10641 1
 8933 10645 10644 1
 8934 10647 10646 1
 8935 10648 10647 1
 8936 10649 10647 1
 8937 10650 10647 1
 8938 10651 10650 1
 8939 10653 10652 1
 8940 10654 10653 1
 8941 10655 10653 1
 8942 10656 10653 1
 8943 10657 10656 1
 8944 10659 10658 1
 8945 10660 10659 1
 8946 10661 10659 1
 8947 10662 10659 1
 8948 10663 10662 1
 8949 10665 10664 1
 8950 10666 10665 1
 8951 10667 10665 1
 8952 10668 10665 1
 8953 10669 10668 1
 8954 10671 10670 1
 8955 10672 10671 1
 8956 10673 10671 1
 8957 10674 10671 1
 8958 10675 10674 1
 8959 10677 10676 1
 8960 10678 10677 1
 8961 10679 10677 1
 8962 10680 10677 1
 8963 10681 10680 1
 8964 10683 10682 1
 8965 10684 10683 1
 8966 10685 10683 1
 8967 10686 10683 1
 8968 10687 10686 1
 8969 10689 10688 1
 8970 10690 10689 1
 8971 10691 10689 1
 8972 10692 10689 1
 8973 10693 10692 1
 8974 10695 10694 1
 8975 10696 10695 1
 8976 10697 10695 1
 8977 10698 10695 1
 8978 10699 10698 1
 8979 10701 10700 1
 8980 10702 10701 1
 8981 10703 10701 1
 8982 10704 10701 1
 8983 10705 10704 1
 8984 10707 10706 1
 8985 10708 10707 1
 8986 10709 10707 1
 8987 10710 10707 1
 8988 10711 10710 1
 8989 10713 10712 1
 8990 10714 10713 1
 8991 10715 10713 1
 8992 10716 10713 1
 8993 10717 10716 1
 8994 10719 10718 1
 8995 10720 10719 1
 8996 10721 10719 1
 8997 10722 10719 1
 8998 10723 10722 1
 8999 10725 10724 1
 9000 10726 10725 1
 9001 10727 10725 1
 9002 10728 10725 1
 9003 10729 10728 1
 9004 10731 10730 1
 9005 10732 10731 1
 9006 10733 10731 1
 9007 10734 10731 1
 9008 10735 10734 1
 9009 10737 10736 1
 9010 10738 10737 1
 9011 10739 10737 1
 9012 10740 10737 1
 9013 10741 10740 1
 9014 10743 10742 1
 9015 10744 10743 1
 9016 10745 10743 1
 9017 10746 10743 1
 9018 10747 10746 1
 9019 10749 10748 1
 9020 10750 10749 1
 9021 10751 10749 1
 9022 10752 10749 1
 9023 10753 10752 1
 9024 10755 10754 1
 9025 10756 10755 1
 9026 10757 10755 1
 9027 10758 10755 1
 9028 10759 10758 1
 9029 10761 10760 1
 9030 10762 10761 1
 9031 10763 10761 1
 9032 10764 10761 1
 9033 10765 10764 1
 9034 10767 10766 1
 9035 10768 10767 1
 9036 10769 10767 1
 9037 10770 10767 1
 9038 10771 10770 1
 9039 10773 10772 1
 9040 10774 10773 1
 9041 10775 10773 1
 9042 10776 10773 1
 9043 10777 10776 1
 9044 10779 10778 1
 9045 10780 10779 1
 9046 10781 10779 1
 9047 10782 10779 1
 9048 10783 10782 1
 9049 10785 10784 1
 9050 10786 10785 1
 9051 10787 10785 1
 9052 10788 10785 1
 9053 10789 10788 1
 9054 10791 10790 1
 9055 10792 10791 1
 9056 10793 10791 1
 9057 10794 10791 1
 9058 10795 10794 1
 9059 10797 10796 1
 9060 10798 10797 1
 9061 10799 10797 1
 9062 10800 10797 1
 9063 10801 10800 1
 9064 10803 10802 1
 9065 10804 10803 1
 9066 10805 10803 1
 9067 10806 10803 1
 9068 10807 10806 1
 9069 10809 10808 1
 9070 10810 10809 1
 9071 10811 10809 1
 9072 10812 10809 1
 9073 10813 10812 1
 9074 10815 10814 1
 9075 10816 10815 1
 9076 10817 10815 1
 9077 10818 10815 1
 9078 10819 10818 1
 9079 10821 10820 1
 9080 10822 10821 1
 9081 10823 10821 1
 9082 10824 10821 1
 9083 10825 10824 1
 9084 10827 10826 1
 9085 10828 10827 1
 9086 10829 10827 1
 9087 10830 10827 1
 9088 10831 10830 1
 9089 10833 10832 1
 9090 10834 10833 1
 9091 10835 10833 1
 9092 10836 10833 1
 9093 10837 10836 1
 9094 10839 10838 1
 9095 10840 10839 1
 9096 10841 10839 1
 9097 10842 10839 1
 9098 10843 10842 1
 9099 10845 10844 1
 9100 10846 10845 1
 9101 10847 10845 1
 9102 10848 10845 1
 9103 10849 10848 1
 9104 10851 10850 1
 9105 10852 10851 1
 9106 10853 10851 1
 9107 10854 10851 1
 9108 10855 10854 1
 9109 10857 10856 1
 9110 10858 10857 1
 9111 10859 10857 1
 9112 10860 10857 1
 9113 10861 10860 1
 9114 10863 10862 1
 9115 10864 10863 1
 9116 10865 10863 1
 9117 10866 10863 1
 9118 10867 10866 1
 9119 10869 10868 1
 9120 10870 10869 1
 9121 10871 10869 1
 9122 10872 10869 1
 9123 10873 10872 1
 9124 10875 10874 1
 9125 10876 10875 1
 9126 10877 10875 1
 9127 10878 10875 1
 9128 10879 10878 1
 9129 10881 10880 1
 9130 10882 10881 1
 9131 10883 10881 1
 9132 10884 10881 1
 9133 10885 10884 1
 9134 10887 10886 1
 9135 10888 10887 1
 9136 10889 10887 1
 9137 10890 10887 1
 9138 10891 10890 1
 9139 10893 10892 1
 9140 10894 10893 1
 9141 10895 10893 1
 9142 10896 10893 1
 9143 10897 10896 1
 9144 10899 10898 1
 9145 10900 10899 1
 9146 10901 10899 1
 9147 10902 10899 1
 9148 10903 10902 1
 9149 10905 10904 1
 9150 10906 10905 1
 9151 10907 10905 1
 9152 10908 10905 1
 9153 10909 10908 1
 9154 10911 10910 1
 9155 10912 10911 1
 9156 10913 10911 1
 9157 10914 10911 1
 9158 10915 10914 1
 9159 10917 10916 1
 9160 10918 10917 1
 9161 10919 10917 1
 9162 10920 10917 1
 9163 10921 10920 1
 9164 10923 10922 1
 9165 10924 10923 1
 9166 10925 10923 1
 9167 10926 10923 1
 9168 10927 10926 1
 9169 10929 10928 1
 9170 10930 10929 1
 9171 10931 10929 1
 9172 10932 10929 1
 9173 10933 10932 1
 9174 10935 10934 1
 9175 10936 10935 1
 9176 10937 10935 1
 9177 10938 10935 1
 9178 10939 10938 1
 9179 10941 10940 1
 9180 10942 10941 1
 9181 10943 10941 1
 9182 10944 10941 1
 9183 10945 10944 1
 9184 10947 10946 1
 9185 10948 10947 1
 9186 10949 10947 1
 9187 10950 10947 1
 9188 10951 10950 1
 9189 10953 10952 1
 9190 10954 10953 1
 9191 10955 10953 1
 9192 10956 10953 1
 9193 10957 10956 1
 9194 10959 10958 1
 9195 10960 10959 1
 9196 10961 10959 1
 9197 10962 10959 1
 9198 10963 10962 1
 9199 10965 10964 1
 9200 10966 10965 1
 9201 10967 10965 1
 9202 10968 10965 1
 9203 10969 10968 1
 9204 10971 10970 1
 9205 10972 10971 1
 9206 10973 10971 1
 9207 10974 10971 1
 9208 10975 10974 1
 9209 10977 10976 1
 9210 10978 10977 1
 9211 10979 10977 1
 9212 10980 10977 1
 9213 10981 10980 1
 9214 10983 10982 1
 9215 10984 10983 1
 9216 10985 10983 1
 9217 10986 10983 1
 9218 10987 10986 1
 9219 10989 10988 1
 9220 10990 10989 1
 9221 10991 10989 1
 9222 10992 10989 1
 9223 10993 10992 1
 9224 10995 10994 1
 9225 10996 10995 1
 9226 10997 10995 1
 9227 10998 10995 1
 9228 10999 10998 1
 9229 11001 11000 1
 9230 11002 11001 1
 9231 11003 11001 1
 9232 11004 11001 1
 9233 11005 11004 1
 9234 11007 11006 1
 9235 11008 11007 1
 9236 11009 11007 1
 9237 11010 11007 1
 9238 11011 11010 1
 9239 11013 11012 1
 9240 11014 11013 1
 9241 11015 11013 1
 9242 11016 11013 1
 9243 11017 11016 1
 9244 11019 11018 1
 9245 11020 11019 1
 9246 11021 11019 1
 9247 11022 11019 1
 9248 11023 11022 1
 9249 11025 11024 1
 9250 11026 11025 1
 9251 11027 11025 1
 9252 11028 11025 1
 9253 11029 11028 1
 9254 11031 11030 1
 9255 11032 11031 1
 9256 11033 11031 1
 9257 11034 11031 1
 9258 11035 11034 1
 9259 11037 11036 1
 9260 11038 11037 1
 9261 11039 11037 1
 9262 11040 11037 1
 9263 11041 11040 1
 9264 11043 11042 1
 9265 11044 11043 1
 9266 11045 11043 1
 9267 11046 11043 1
 9268 11047 11046 1
 9269 11049 11048 1
 9270 11050 11049 1
 9271 11051 11049 1
 9272 11052 11049 1
 9273 11053 11052 1
 9274 11055 11054 1
 9275 11056 11055 1
 9276 11057 11055 1
 9277 11058 11055 1
 9278 11059 11058 1
 9279 11061 11060 1
 9280 11062 11061 1
 9281 11063 11061 1
 9282 11064 11061 1
 9283 11065 11064 1
 9284 11067 11066 1
 9285 11068 11067 1
 9286 11069 11067 1
 9287 11070 11067 1
 9288 11071 11070 1
 9289 11073 11072 1
 9290 11074 11073 1
 9291 11075 11073 1
 9292 11076 11073 1
 9293 11077 11076 1
 9294 11079 11078 1
 9295 11080 11079 1
 9296 11081 11079 1
 9297 11082 11079 1
 9298 11083 11082 1
 9299 11085 11084 1
 9300 11086 11085 1
 9301 11087 11085 1
 9302 11088 11085 1
 9303 11089 11088 1
 9304 11091 11090 1
 9305 11092 11091 1
 9306 11093 11091 1
 9307 11094 11091 1
 9308 11095 11094 1
 9309 11097 11096 1
 9310 11098 11097 1
 9311 11099 11097 1
 9312 11100 11097 1
 9313 11101 11100 1
 9314 11103 11102 1
 9315 11104 11103 1
 9316 11105 11103 1
 9317 11106 11103 1
 9318 11107 11106 1
 9319 11109 11108 1
 9320 11110 11109 1
 9321 11111 11109 1
 9322 11112 11109 1
 9323 11113 11112 1
 9324 11115 11114 1
 9325 11116 11115 1
 9326 11117 11115 1
 9327 11118 11115 1
 9328 11119 11118 1
 9329 11121 11120 1
 9330 11122 11121 1
 9331 11123 11121 1
 9332 11124 11121 1
 9333 11125 11124 1
 9334 11127 11126 1
 9335 11128 11127 1
 9336 11129 11127 1
 9337 11130 11127 1
 9338 11131 11130 1
 9339 11133 11132 1
 9340 11134 11133 1
 9341 11135 11133 1
 9342 11136 11133 1
 9343 11137 11136 1
 9344 11139 11138 1
 9345 11140 11139 1
 9346 11141 11139 1
 9347 11142 11139 1
 9348 11143 11142 1
 9349 11145 11144 1
 9350 11146 11145 1
 9351 11147 11145 1
 9352 11148 11145 1
 9353 11149 11148 1
 9354 11151 11150 1
 9355 11152 11151 1
 9356 11153 11151 1
 9357 11154 11151 1
 9358 11155 11154 1
 9359 11157 11156 1
 9360 11158 11157 1
 9361 11159 11157 1
 9362 11160 11157 1
 9363 11161 11160 1
 9364 11163 11162 1
 9365 11164 11163 1
 9366 11165 11163 1
 9367 11166 11163 1
 9368 11167 11166 1
 9369 11169 11168 1
 9370 11170 11169 1
 9371 11171 11169 1
 9372 11172 11169 1
 9373 11173 11172 1
 9374 11175 11174 1
 9375 11176 11175 1
 9376 11177 11175 1
 9377 11178 11175 1
 9378 11179 11178 1
 9379 11181 11180 1
 9380 11182 11181 1
 9381 11183 11181 1
 9382 11184 11181 1
 9383 11185 11184 1
 9384 11187 11186 1
 9385 11188 11187 1
 9386 11189 11187 1
 9387 11190 11187 1
 9388 11191 11190 1
 9389 11193 11192 1
 9390 11194 11193 1
 9391 11195 11193 1
 9392 11196 11193 1
 9393 11197 11196 1
 9394 11199 11198 1
 9395 11200 11199 1
 9396 11201 11199 1
 9397 11202 11199 1
 9398 11203 11202 1
 9399 11205 11204 1
 9400 11206 11205 1
 9401 11207 11205 1
 9402 11208 11205 1
 9403 11209 11208 1
 9404 11211 11210 1
 9405 11212 11211 1
 9406 11213 11211 1
 9407 11214 11211 1
 9408 11215 11214 1
 9409 11217 11216 1
 9410 11218 11217 1
 9411 11219 11217 1
 9412 11220 11217 1
 9413 11221 11220 1
 9414 11223 11222 1
 9415 11224 11223 1
 9416 11225 11223 1
 9417 11226 11223 1
 9418 11227 11226 1
 9419 11229 11228 1
 9420 11230 11229 1
 9421 11231 11229 1
 9422 11232 11229 1
 9423 11233 11232 1
 9424 11235 11234 1
 9425 11236 11235 1
 9426 11237 11235 1
 9427 11238 11235 1
 9428 11239 11238 1
 9429 11241 11240 1
 9430 11242 11241 1
 9431 11243 11241 1
 9432 11244 11241 1
 9433 11245 11244 1
 9434 11247 11246 1
 9435 11248 11247 1
 9436 11249 11247 1
 9437 11250 11247 1
 9438 11251 11250 1
 9439 11253 11252 1
 9440 11254 11253 1
 9441 11255 11253 1
 9442 11256 11253 1
 9443 11257 11256 1
 9444 11259 11258 1
 9445 11260 11259 1
 9446 11261 11259 1
 9447 11262 11259 1
 9448 11263 11262 1
 9449 11265 11264 1
 9450 11266 11265 1
 9451 11267 11265 1
 9452 11268 11265 1
 9453 11269 11268 1
 9454 11271 11270 1
 9455 11272 11271 1
 9456 11273 11271 1
 9457 11274 11271 1
 9458 11275 11274 1
 9459 11277 11276 1
 9460 11278 11277 1
 9461 11279 11277 1
 9462 11280 11277 1
 9463 11281 11280 1
 9464 11283 11282 1
 9465 11284 11283 1
 9466 11285 11283 1
 9467 11286 11283 1
 9468 11287 11286 1
 9469 11289 11288 1
 9470 11290 11289 1
 9471 11291 11289 1
 9472 11292 11289 1
 9473 11293 11292 1
 9474 11295 11294 1
 9475 11296 11295 1
 9476 11297 11295 1
 9477 11298 11295 1
 9478 11299 11298 1
 9479 11301 11300 1
 9480 11302 11301 1
 9481 11303 11301 1
 9482 11304 11301 1
 9483 11305 11304 1
 9484 11307 11306 1
 9485 11308 11307 1
 9486 11309 11307 1
 9487 11310 11307 1
 9488 11311 11310 1
 9489 11313 11312 1
 9490 11314 11313 1
 9491 11315 11313 1
 9492 11316 11313 1
 9493 11317 11316 1
 9494 11319 11318 1
 9495 11320 11319 1
 9496 11321 11319 1
 9497 11322 11319 1
 9498 11323 11322 1
 9499 11325 11324 1
 9500 11326 11325 1
 9501 11327 11325 1
 9502 11328 11325 1
 9503 11329 11328 1
 9504 11331 11330 1
 9505 11332 11331 1
 9506 11333 11331 1
 9507 11334 11331 1
 9508 11335 11334 1
 9509 11337 11336 1
 9510 11338 11337 1
 9511 11339 11337 1
 9512 11340 11337 1
 9513 11341 11340 1
 9514 11343 11342 1
 9515 11344 11343 1
 9516 11345 11343 1
 9517 11346 11343 1
 9518 11347 11346 1
 9519 11349 11348 1
 9520 11350 11349 1
 9521 11351 11349 1
 9522 11352 11349 1
 9523 11353 11352 1
 9524 11355 11354 1
 9525 11356 11355 1
 9526 11357 11355 1
 9527 11358 11355 1
 9528 11359 11358 1
 9529 11361 11360 1
 9530 11362 11361 1
 9531 11363 11361 1
 9532 11364 11361 1
 9533 11365 11364 1
 9534 11367 11366 1
 9535 11368 11367 1
 9536 11369 11367 1
 9537 11370 11367 1
 9538 11371 11370 1
 9539 11373 11372 1
 9540 11374 11373 1
 9541 11375 11373 1
 9542 11376 11373 1
 9543 11377 11376 1
 9544 11379 11378 1
 9545 11380 11379 1
 9546 11381 11379 1
 9547 11382 11379 1
 9548 11383 11382 1
 9549 11385 11384 1
 9550 11386 11385 1
 9551 11387 11385 1
 9552 11388 11385 1
 9553 11389 11388 1
 9554 11391 11390 1
 9555 11392 11391 1
 9556 11393 11391 1
 9557 11394 11391 1
 9558 11395 11394 1
 9559 11397 11396 1
 9560 11398 11397 1
 9561 11399 11397 1
 9562 11400 11397 1
 9563 11401 11400 1
 9564 11403 11402 1
 9565 11404 11403 1
 9566 11405 11403 1
 9567 11406 11403 1
 9568 11407 11406 1
 9569 11409 11408 1
 9570 11410 11409 1
 9571 11411 11409 1
 9572 11412 11409 1
 9573 11413 11412 1
 9574 11415 11414 1
 9575 11416 11415 1
 9576 11417 11415 1
 9577 11418 11415 1
 9578 11419 11418 1
 9579 11421 11420 1
 9580 11422 11421 1
 9581 11423 11421 1
 9582 11424 11421 1
 9583 11425 11424 1
 9584 11427 11426 1
 9585 11428 11427 1
 9586 11429 11427 1
 9587 11430 11427 1
 9588 11431 11430 1
 9589 11433 11432 1
 9590 11434 11433 1
 9591 11435 11433 1
 9592 11436 11433 1
 9593 11437 11436 1
 9594 11439 11438 1
 9595 11440 11439 1
 9596 11441 11439 1
 9597 11442 11439 1
 9598 11443 11442 1
 9599 11445 11444 1
 9600 11446 11445 1
 9601 11447 11445 1
 9602 11448 11445 1
 9603 11449 11448 1
 9604 11451 11450 1
 9605 11452 11451 1
 9606 11453 11451 1
 9607 11454 11451 1
 9608 11455 11454 1
 9609 11457 11456 1
 9610 11458 11457 1
 9611 11459 11457 1
 9612 11460 11457 1
 9613 11461 11460 1
 9614 11463 11462 1
 9615 11464 11463 1
 9616 11465 11463 1
 9617 11466 11463 1
 9618 11467 11466 1
 9619 11469 11468 1
 9620 11470 11469 1
 9621 11471 11469 1
 9622 11472 11469 1
 9623 11473 11472 1
 9624 11475 11474 1
 9625 11476 11475 1
 9626 11477 11475 1
 9627 11478 11475 1
 9628 11479 11478 1
 9629 11481 11480 1
 9630 11482 11481 1
 9631 11483 11481 1
 9632 11484 11481 1
 9633 11485 11484 1
 9634 11487 11486 1
 9635 11488 11487 1
 9636 11489 11487 1
 9637 11490 11487 1
 9638 11491 11490 1
 9639 11493 11492 1
 9640 11494 11493 1
 9641 11495 11493 1
 9642 11496 11493 1
 9643 11497 11496 1
 9644 11499 11498 1
 9645 11500 11499 1
 9646 11501 11499 1
 9647 11502 11499 1
 9648 11503 11502 1
 9649 11505 11504 1
 9650 11506 11505 1
 9651 11507 11505 1
 9652 11508 11505 1
 9653 11509 11508 1
 9654 11511 11510 1
 9655 11512 11511 1
 9656 11513 11511 1
 9657 11514 11511 1
 9658 11515 11514 1
 9659 11517 11516 1
 9660 11518 11517 1
 9661 11519 11517 1
 9662 11520 11517 1
 9663 11521 11520 1
 9664 11523 11522 1
 9665 11524 11523 1
 9666 11525 11523 1
 9667 11526 11523 1
 9668 11527 11526 1
 9669 11529 11528 1
 9670 11530 11529 1
 9671 11531 11529 1
 9672 11532 11529 1
 9673 11533 11532 1
 9674 11535 11534 1
 9675 11536 11535 1
 9676 11537 11535 1
 9677 11538 11535 1
 9678 11539 11538 1
 9679 11541 11540 1
 9680 11542 11541 1
 9681 11543 11541 1
 9682 11544 11541 1
 9683 11545 11544 1
 9684 11547 11546 1
 9685 11548 11547 1
 9686 11549 11547 1
 9687 11550 11547 1
 9688 11551 11550 1
 9689 11553 11552 1
 9690 11554 11553 1
 9691 11555 11553 1
 9692 11556 11553 1
 9693 11557 11556 1
 9694 11559 11558 1
 9695 11560 11559 1
 9696 11561 11559 1
 9697 11562 11559 1
 9698 11563 11562 1
 9699 11565 11564 1
 9700 11566 11565 1
 9701 11567 11565 1
 9702 11568 11565 1
 9703 11569 11568 1
 9704 11571 11570 1
 9705 11572 11571 1
 9706 11573 11571 1
 9707 11574 11571 1
 9708 11575 11574 1
 9709 11577 11576 1
 9710 11578 11577 1
 9711 11579 11577 1
 9712 11580 11577 1
 9713 11581 11580 1
 9714 11583 11582 1
 9715 11584 11583 1
 9716 11585 11583 1
 9717 11586 11583 1
 9718 11587 11586 1
 9719 11589 11588 1
 9720 11590 11589 1
 9721 11591 11589 1
 9722 11592 11589 1
 9723 11593 11592 1
 9724 11595 11594 1
 9725 11596 11595 1
 9726 11597 11595 1
 9727 11598 11595 1
 9728 11599 11598 1
 9729 11601 11600 1
 9730 11602 11601 1
 9731 11603 11601 1
 9732 11604 11601 1
 9733 11605 11604 1
 9734 11607 11606 1
 9735 11608 11607 1
 9736 11609 11607 1
 9737 11610 11607 1
 9738 11611 11610 1
 9739 11613 11612 1
 9740 11614 11613 1
 9741 11615 11613 1
 9742 11616 11613 1
 9743 11617 11616 1
 9744 11619 11618 1
 9745 11620 11619 1
 9746 11621 11619 1
 9747 11622 11619 1
 9748 11623 11622 1
 9749 11625 11624 1
 9750 11626 11625 1
 9751 11627 11625 1
 9752 11628 11625 1
 9753 11629 11628 1
 9754 11631 11630 1
 9755 11632 11631 1
 9756 11633 11631 1
 9757 11634 11631 1
 9758 11635 11634 1
 9759 11637 11636 1
 9760 11638 11637 1
 9761 11639 11637 1
 9762 11640 11637 1
 9763 11641 11640 1
 9764 11643 11642 1
 9765 11644 11643 1
 9766 11645 11643 1
 9767 11646 11643 1
 9768 11647 11646 1
 9769 11649 11648 1
 9770 11650 11649 1
 9771 11651 11649 1
 9772 11652 11649 1
 9773 11653 11652 1
 9774 11655 11654 1
 9775 11656 11655 1
 9776 11657 11655 1
 9777 11658 11655 1
 9778 11659 11658 1
 9779 11661 11660 1
 9780 11662 11661 1
 9781 11663 11661 1
 9782 11664 11661 1
 9783 11665 11664 1
 9784 11667 11666 1
 9785 11668 11667 1
 9786 11669 11667 1
 9787 11670 11667 1
 9788 11671 11670 1
 9789 11673 11672 1
 9790 11674 11673 1
 9791 11675 11673 1
 9792 11676 11673 1
 9793 11677 11676 1
 9794 11679 11678 1
 9795 11680 11679 1
 9796 11681 11679 1
 9797 11682 11679 1
 9798 11683 11682 1
 9799 11685 11684 1
 9800 11686 11685 1
 9801 11687 11685 1
 9802 11688 11685 1
 9803 11689 11688 1
 9804 11691 11690 1
 9805 11692 11691 1
 9806 11693 11691 1
 9807 11694 11691 1
 9808 11695 11694 1
 9809 11697 11696 1
 9810 11698 11697 1
 9811 11699 11697 1
 9812 11700 11697 1
 9813 11701 11700 1
 9814 11703 11702 1
 9815 11704 11703 1
 9816 11705 11703 1
 9817 11706 11703 1
 9818 11707 11706 1
 9819 11709 11708 1
 9820 11710 11709 1
 9821 11711 11709 1
 9822 11712 11709 1
 9823 11713 11712 1
 9824 11715 11714 1
 9825 11716 11715 1
 9826 11717 11715 1
 9827 11718 11715 1
 9828 11719 11718 1
 9829 11721 11720 1
 9830 11722 11721 1
 9831 11723 11721 1
 9832 11724 11721 1
 9833 11725 11724 1
 9834 11727 11726 1
 9835 11728 11727 1
 9836 11729 11727 1
 9837 11730 11727 1
 9838 11731 11730 1
 9839 11733 11732 1
 9840 11734 11733 1
 9841 11735 11733 1
 9842 11736 11733 1
 9843 11737 11736 1
 9844 11739 11738 1
 9845 11740 11739 1
 9846 11741 11739 1
 9847 11742 11739 1
 9848 11743 11742 1
 9849 11745 11744 1
 9850 11746 11745 1
 9851 11747 11745 1
 9852 11748 11745 1
 9853 11749 11748 1
 9854 11751 11750 1
 9855 11752 11751 1
 9856 11753 11751 1
 9857 11754 11751 1
 9858 11755 11754 1
 9859 11757 11756 1
 9860 11758 11757 1
 9861 11759 11757 1
 9862 11760 11757 1
 9863 11761 11760 1
 9864 11763 11762 1
 9865 11764 11763 1
 9866 11765 11763 1
 9867 11766 11763 1
 9868 11767 11766 1
 9869 11769 11768 1
 9870 11770 11769 1
 9871 11771 11769 1
 9872 11772 11769 1
 9873 11773 11772 1
 9874 11775 11774 1
 9875 11776 11775 1
 9876 11777 11775 1
 9877 11778 11775 1
 9878 11779 11778 1
 9879 11781 11780 1
 9880 11782 11781 1
 9881 11783 11781 1
 9882 11784 11781 1
 9883 11785 11784 1
 9884 11787 11786 1
 9885 11788 11787 1
 9886 11789 11787 1
 9887 11790 11787 1
 9888 11791 11790 1
 9889 11793 11792 1
 9890 11794 11793 1
 9891 11795 11793 1
 9892 11796 11793 1
 9893 11797 11796 1
 9894 11799 11798 1
 9895 11800 11799 1
 9896 11801 11799 1
 9897 11802 11799 1
 9898 11803 11802 1
 9899 11805 11804 1
 9900 11806 11805 1
 9901 11807 11805 1
 9902 11808 11805 1
 9903 11809 11808 1
 9904 11811 11810 1
 9905 11812 11811 1
 9906 11813 11811 1
 9907 11814 11811 1
 9908 11815 11814 1
 9909 11817 11816 1
 9910 11818 11817 1
 9911 11819 11817 1
 9912 11820 11817 1
 9913 11821 11820 1
 9914 11823 11822 1
 9915 11824 11823 1
 9916 11825 11823 1
 9917 11826 11823 1
 9918 11827 11826 1
 9919 11829 11828 1
 9920 11830 11829 1
 9921 11831 11829 1
 9922 11832 11829 1
 9923 11833 11832 1
 9924 11835 11834 1
 9925 11836 11835 1
 9926 11837 11835 1
 9927 11838 11835 1
 9928 11839 11838 1
 9929 11841 11840 1
 9930 11842 11841 1
 9931 11843 11841 1
 9932 11844 11841 1
 9933 11845 11844 1
 9934 11847 11846 1
 9935 11848 11847 1
 9936 11849 11847 1
 9937 11850 11847 1
 9938 11851 11850 1
 9939 11853 11852 1
 9940 11854 11853 1
 9941 11855 11853 1
 9942 11856 11853 1
 9943 11857 11856 1
 9944 11859 11858 1
 9945 11860 11859 1
 9946 11861 11859 1
 9947 11862 11859 1
 9948 11863 11862 1
 9949 11865 11864 1
 9950 11866 11865 1
 9951 11867 11865 1
 9952 11868 11865 1
 9953 11869 11868 1
 9954 11871 11870 1
 9955 11872 11871 1
 9956 11873 11871 1
 9957 11874 11871 1
 9958 11875 11874 1
 9959 11877 11876 1
 9960 11878 11877 1
 9961 11879 11877 1
 9962 11880 11877 1
 9963 11881 11880 1
 9964 11883 11882 1
 9965 11884 11883 1
 9966 11885 11883 1
 9967 11886 11883 1
 9968 11887 11886 1
 9969 11889 11888 1
 9970 11890 11889 1
 9971 11891 11889 1
 9972 11892 11889 1
 9973 11893 11892 1
 9974 11895 11894 1
 9975 11896 11895 1
 9976 11897 11895 1
 9977 11898 11895 1
 9978 11899 11898 1
 9979 11901 11900 1
 9980 11902 11901 1
 9981 11903 11901 1
 9982 11904 11901 1
 9983 11905 11904 1
 9984 11907 11906 1
 9985 11908 11907 1
 9986 11909 11907 1
 9987 11910 11907 1
 9988 11911 11910 1
 9989 11913 11912 1
 9990 11914 11913 1
 9991 11915 11913 1
 9992 11916 11913 1
 9993 11917 11916 1
 9994 11919 11918 1
 9995 11920 11919 1
 9996 11921 11919 1
 9997 11922 11919 1
 9998 11923 11922 1
 9999 11925 11924 1
10000 11926 11925 1
10001 11927 11925 1
10002 11928 11925 1
10003 11929 11928 1
10004 11931 11930 1
10005 11932 11931 1
10006 11933 11931 1
10007 11934 11931 1
10008 11935 11934 1
10009 11937 11936 1
10010 11938 11937 1
10011 11939 11937 1
10012 11940 11937 1
10013 11941 11940 1
10014 11943 11942 1
10015 11944 11943 1
10016 11945 11943 1
10017 11946 11943 1
10018 11947 11946 1
10019 11949 11948 1
10020 11950 11949 1
10021 11951 11949 1
10022 11952 11949 1
10023 11953 11952 1
10024 11955 11954 1
10025 11956 11955 1
10026 11957 11955 1
10027 11958 11955 1
10028 11959 11958 1
10029 11961 11960 1
10030 11962 11961 1
10031 11963 11961 1
10032 11964 11961 1
10033 11965 11964 1
10034 11967 11966 1
10035 11968 11967 1
10036 11969 11967 1
10037 11970 11967 1
10038 11971 11970 1
10039 11973 11972 1
10040 11974 11973 1
10041 11975 11973 1
10042 11976 11973 1
10043 11977 11976 1
10044 11979 11978 1
10045 11980 11979 1
10046 11981 11979 1
10047 11982 11979 1
10048 11983 11982 1
10049 11985 11984 1
10050 11986 11985 1
10051 11987 11985 1
10052 11988 11985 1
10053 11989 11988 1
10054 11991 11990 1
10055 11992 11991 1
10056 11993 11991 1
10057 11994 11991 1
10058 11995 11994 1
10059 11997 11996 1
10060 11998 11997 1
10061 11999 11997 1
10062 12000 11997 1
10063 12001 12000 1
10064 12003 12002 1
10065 12004 12003 1
10066 12005 12003 1
10067 12006 12003 1
10068 12007 12006 1
10069 12009 12008 1
10070 12010 12009 1
10071 12011 12009 1
10072 12012 12009 1
10073 12013 12012 1
10074 12015 12014 1
10075 12016 12015 1
10076 12017 12015 1
10077 12018 12015 1
10078 12019 12018 1
10079 12021 12020 1
10080 12022 12021 1
10081 12023 12021 1
10082 12024 12021 1
10083 12025 12024 1
10084 12027 12026 1
10085 12028 12027 1
10086 12029 12027 1
10087 12030 12027 1
10088 12031 12030 1
10089 12033 12032 1
10090 12034 12033 1
10091 12035 12033 1
10092 12036 12033 1
10093 12037 12036 1
10094 12039 12038 1
10095 12040 12039 1
10096 12041 12039 1
10097 12042 12039 1
10098 12043 12042 1
10099 12045 12044 1
10100 12046 12045 1
10101 12047 12045 1
10102 12048 12045 1
10103 12049 12048 1
10104 12051 12050 1
10105 12052 12051 1
10106 12053 12051 1
10107 12054 12051 1
10108 12055 12054 1
10109 12057 12056 1
10110 12058 12057 1
10111 12059 12057 1
10112 12060 12057 1
10113 12061 12060 1
10114 12063 12062 1
10115 12064 12063 1
10116 12065 12063 1
10117 12066 12063 1
10118 12067 12066 1
10119 12069 12068 1
10120 12070 12069 1
10121 12071 12069 1
10122 12072 12069 1
10123 12073 12072 1
10124 12075 12074 1
10125 12076 12075 1
10126 12077 12075 1
10127 12078 12075 1
10128 12079 12078 1
10129 12081 12080 1
10130 12082 12081 1
10131 12083 12081 1
10132 12084 12081 1
10133 12085 12084 1
10134 12087 12086 1
10135 12088 12087 1
10136 12089 12087 1
10137 12090 12087 1
10138 12091 12090 1
10139 12093 12092 1
10140 12094 12093 1
10141 12095 12093 1
10142 12096 12093 1
10143 12097 12096 1
10144 12099 12098 1
10145 12100 12099 1
10146 12101 12099 1
10147 12102 12099 1
10148 12103 12102 1
10149 12105 12104 1
10150 12106 12105 1
10151 12107 12105 1
10152 12108 12105 1
10153 12109 12108 1
10154 12111 12110 1
10155 12112 12111 1
10156 12113 12111 1
10157 12114 12111 1
10158 12115 12114 1
10159 12117 12116 1
10160 12118 12117 1
10161 12119 12117 1
10162 12120 12117 1
10163 12121 12120 1
10164 12123 12122 1
10165 12124 12123 1
10166 12125 12123 1
10167 12126 12123 1
10168 12127 12126 1
10169 12129 12128 1
10170 12130 12129 1
10171 12131 12129 1
10172 12132 12129 1
10173 12133 12132 1
10174 12135 12134 1
10175 12136 12135 1
10176 12137 12135 1
10177 12138 12135 1
10178 12139 12138 1
10179 12141 12140 1
10180 12142 12141 1
10181 12143 12141 1
10182 12144 12141 1
10183 12145 12144 1
10184 12147 12146 1
10185 12148 12147 1
10186 12149 12147 1
10187 12150 12147 1
10188 12151 12150 1
10189 12153 12152 1
10190 12154 12153 1
10191 12155 12153 1
10192 12156 12153 1
10193 12157 12156 1
10194 12159 12158 1
10195 12160 12159 1
10196 12161 12159 1
10197 12162 12159 1
10198 12163 12162 1
10199 12165 12164 1
10200 12166 12165 1
10201 12167 12165 1
10202 12168 12165 1
10203 12169 12168 1
10204 12171 12170 1
10205 12172 12171 1
10206 12173 12171 1
10207 12174 12171 1
10208 12175 12174 1
10209 12177 12176 1
10210 12178 12177 1
10211 12179 12177 1
10212 12180 12177 1
10213 12181 12180 1
10214 12183 12182 1
10215 12184 12183 1
10216 12185 12183 1
10217 12186 12183 1
10218 12187 12186 1
10219 12189 12188 1
10220 12190 12189 1
10221 12191 12189 1
10222 12192 12189 1
10223 12193 12192 1
10224 12195 12194 1
10225 12196 12195 1
10226 12197 12195 1
10227 12198 12195 1
10228 12199 12198 1
10229 12201 12200 1
10230 12202 12201 1
10231 12203 12201 1
10232 12204 12201 1
10233 12205 12204 1
10234 12207 12206 1
10235 12208 12207 1
10236 12209 12207 1
10237 12210 12207 1
10238 12211 12210 1
10239 12213 12212 1
10240 12214 12213 1
10241 12215 12213 1
10242 12216 12213 1
10243 12217 12216 1
10244 12219 12218 1
10245 12220 12219 1
10246 12221 12219 1
10247 12222 12219 1
10248 12223 12222 1
10249 12225 12224 1
10250 12226 12225 1
10251 12227 12225 1
10252 12228 12225 1
10253 12229 12228 1
10254 12231 12230 1
10255 12232 12231 1
10256 12233 12231 1
10257 12234 12231 1
10258 12235 12234 1
10259 12237 12236 1
10260 12238 12237 1
10261 12239 12237 1
10262 12240 12237 1
10263 12241 12240 1
10264 12243 12242 1
10265 12244 12243 1
10266 12245 12243 1
10267 12246 12243 1
10268 12247 12246 1
10269 12249 12248 1
10270 12250 12249 1
10271 12251 12249 1
10272 12252 12249 1
10273 12253 12252 1
10274 12255 12254 1
10275 12256 12255 1
10276 12257 12255 1
10277 12258 12255 1
10278 12259 12258 1
10279 12261 12260 1
10280 12262 12261 1
10281 12263 12261 1
10282 12264 12261 1
10283 12265 12264 1
10284 12267 12266 1
10285 12268 12267 1
10286 12269 12267 1
10287 12270 12267 1
10288 12271 12270 1
10289 12273 12272 1
10290 12274 12273 1
10291 12275 12273 1
10292 12276 12273 1
10293 12277 12276 1
10294 12279 12278 1
10295 12280 12279 1
10296 12281 12279 1
10297 12282 12279 1
10298 12283 12282 1
10299 12285 12284 1
10300 12286 12285 1
10301 12287 12285 1
10302 12288 12285 1
10303 12289 12288 1
10304 12291 12290 1
10305 12292 12291 1
10306 12293 12291 1
10307 12294 12291 1
10308 12295 12294 1
10309 12297 12296 1
10310 12298 12297 1
10311 12299 12297 1
10312 12300 12297 1
10313 12301 12300 1
10314 12303 12302 1
10315 12304 12303 1
10316 12305 12303 1
10317 12306 12303 1
10318 12307 12306 1
10319 12309 12308 1
10320 12310 12309 1
10321 12311 12309 1
10322 12312 12309 1
10323 12313 12312 1
10324 12315 12314 1
10325 12316 12315 1
10326 12317 12315 1
10327 12318 12315 1
10328 12319 12318 1
10329 12321 12320 1
10330 12322 12321 1
10331 12323 12321 1
10332 12324 12321 1
10333 12325 12324 1
10334 12327 12326 1
10335 12328 12327 1
10336 12329 12327 1
10337 12330 12327 1
10338 12331 12330 1
10339 12333 12332 1
10340 12334 12333 1
10341 12335 12333 1
10342 12336 12333 1
10343 12337 12336 1
10344 12339 12338 1
10345 12340 12339 1
10346 12341 12339 1
10347 12342 12339 1
10348 12343 12342 1
10349 12345 12344 1
10350 12346 12345 1
10351 12347 12345 1
10352 12348 12345 1
10353 12349 12348 1
10354 12351 12350 1
10355 12352 12351 1
10356 12353 12351 1
10357 12354 12351 1
10358 12355 12354 1
10359 12357 12356 1
10360 12358 12357 1
10361 12359 12357 1
10362 12360 12357 1
10363 12361 12360 1
10364 12363 12362 1
10365 12364 12363 1
10366 12365 12363 1
10367 12366 12363 1
10368 12367 12366 1
10369 12369 12368 1
10370 12370 12369 1
10371 12371 12369 1
10372 12372 12369 1
10373 12373 12372 1
10374 12375 12374 1
10375 12376 12375 1
10376 12377 12375 1
10377 12378 12375 1
10378 12379 12378 1
10379 12381 12380 1
10380 12382 12381 1
10381 12383 12381 1
10382 12384 12381 1
10383 12385 12384 1
10384 12387 12386 1
10385 12388 12387 1
10386 12389 12387 1
10387 12390 12387 1
10388 12391 12390 1
10389 12393 12392 1
10390 12394 12393 1
10391 12395 12393 1
10392 12396 12393 1
10393 12397 12396 1
10394 12399 12398 1
10395 12400 12399 1
10396 12401 12399 1
10397 12402 12399 1
10398 12403 12402 1
10399 12405 12404 1
10400 12406 12405 1
10401 12407 12405 1
10402 12408 12405 1
10403 12409 12408 1
10404 12411 12410 1
10405 12412 12411 1
10406 12413 12411 1
10407 12414 12411 1
10408 12415 12414 1
10409 12417 12416 1
10410 12418 12417 1
10411 12419 12417 1
10412 12420 12417 1
10413 12421 12420 1
10414 12423 12422 1
10415 12424 12423 1
10416 12425 12423 1
10417 12426 12423 1
10418 12427 12426 1
10419 12429 12428 1
10420 12430 12429 1
10421 12431 12429 1
10422 12432 12429 1
10423 12433 12432 1
10424 12435 12434 1
10425 12436 12435 1
10426 12437 12435 1
10427 12438 12435 1
10428 12439 12438 1
10429 12441 12440 1
10430 12442 12441 1
10431 12443 12441 1
10432 12444 12441 1
10433 12445 12444 1
10434 12447 12446 1
10435 12448 12447 1
10436 12449 12447 1
10437 12450 12447 1
10438 12451 12450 1
10439 12453 12452 1
10440 12454 12453 1
10441 12455 12453 1
10442 12456 12453 1
10443 12457 12456 1
10444 12459 12458 1
10445 12460 12459 1
10446 12461 12459 1
10447 12462 12459 1
10448 12463 12462 1
10449 12465 12464 1
10450 12466 12465 1
10451 12467 12465 1
10452 12468 12465 1
10453 12469 12468 1
10454 12471 12470 1
10455 12472 12471 1
10456 12473 12471 1
10457 12474 12471 1
10458 12475 12474 1
10459 12477 12476 1
10460 12478 12477 1
10461 12479 12477 1
10462 12480 12477 1
10463 12481 12480 1
10464 12483 12482 1
10465 12484 12483 1
10466 12485 12483 1
10467 12486 12483 1
10468 12487 12486 1
10469 12489 12488 1
10470 12490 12489 1
10471 12491 12489 1
10472 12492 12489 1
10473 12493 12492 1
10474 12495 12494 1
10475 12496 12495 1
10476 12497 12495 1
10477 12498 12495 1
10478 12499 12498 1
10479 12501 12500 1
10480 12502 12501 1
10481 12503 12501 1
10482 12504 12501 1
10483 12505 12504 1
10484 12507 12506 1
10485 12508 12507 1
10486 12509 12507 1
10487 12510 12507 1
10488 12511 12510 1
10489 12513 12512 1
10490 12514 12513 1
10491 12515 12513 1
10492 12516 12513 1
10493 12517 12516 1
10494 12519 12518 1
10495 12520 12519 1
10496 12521 12519 1
10497 12522 12519 1
10498 12523 12522 1
10499 12525 12524 1
10500 12526 12525 1
10501 12527 12525 1
10502 12528 12525 1
10503 12529 12528 1
10504 12531 12530 1
10505 12532 12531 1
10506 12533 12531 1
10507 12534 12531 1
10508 12535 12534 1
10509 12537 12536 1
10510 12538 12537 1
10511 12539 12537 1
10512 12540 12537 1
10513 12541 12540 1
10514 12543 12542 1
10515 12544 12543 1
10516 12545 12543 1
10517 12546 12543 1
10518 12547 12546 1
10519 12549 12548 1
10520 12550 12549 1
10521 12551 12549 1
10522 12552 12549 1
10523 12553 12552 1
10524 12555 12554 1
10525 12556 12555 1
10526 12557 12555 1
10527 12558 12555 1
10528 12559 12558 1
10529 12561 12560 1
10530 12562 12561 1
10531 12563 12561 1
10532 12564 12561 1
10533 12565 12564 1
10534 12567 12566 1
10535 12568 12567 1
10536 12569 12567 1
10537 12570 12567 1
10538 12571 12570 1
10539 12573 12572 1
10540 12574 12573 1
10541 12575 12573 1
10542 12576 12573 1
10543 12577 12576 1
10544 12579 12578 1
10545 12580 12579 1
10546 12581 12579 1
10547 12582 12579 1
10548 12583 12582 1
10549 12585 12584 1
10550 12586 12585 1
10551 12587 12585 1
10552 12588 12585 1
10553 12589 12588 1
10554 12591 12590 1
10555 12592 12591 1
10556 12593 12591 1
10557 12594 12591 1
10558 12595 12594 1
10559 12597 12596 1
10560 12598 12597 1
10561 12599 12597 1
10562 12600 12597 1
10563 12601 12600 1
10564 12603 12602 1
10565 12604 12603 1
10566 12605 12603 1
10567 12606 12603 1
10568 12607 12606 1
10569 12609 12608 1
10570 12610 12609 1
10571 12611 12609 1
10572 12612 12609 1
10573 12613 12612 1
10574 12615 12614 1
10575 12616 12615 1
10576 12617 12615 1
10577 12618 12615 1
10578 12619 12618 1
10579 12621 12620 1
10580 12622 12621 1
10581 12623 12621 1
10582 12624 12621 1
10583 12625 12624 1
10584 12627 12626 1
10585 12628 12627 1
10586 12629 12627 1
10587 12630 12627 1
10588 12631 12630 1
10589 12633 12632 1
10590 12634 12633 1
10591 12635 12633 1
10592 12636 12633 1
10593 12637 12636 1
10594 12639 12638 1
10595 12640 12639 1
10596 12641 12639 1
10597 12642 12639 1
10598 12643 12642 1
10599 12645 12644 1
10600 12646 12645 1
10601 12647 12645 1
10602 12648 12645 1
10603 12649 12648 1
10604 12651 12650 1
10605 12652 12651 1
10606 12653 12651 1
10607 12654 12651 1
10608 12655 12654 1
10609 12657 12656 1
10610 12658 12657 1
10611 12659 12657 1
10612 12660 12657 1
10613 12661 12660 1
10614 12663 12662 1
10615 12664 12663 1
10616 12665 12663 1
10617 12666 12663 1
10618 12667 12666 1
10619 12669 12668 1
10620 12670 12669 1
10621 12671 12669 1
10622 12672 12669 1
10623 12673 12672 1
10624 12675 12674 1
10625 12676 12675 1
10626 12677 12675 1
10627 12678 12675 1
10628 12679 12678 1
10629 12681 12680 1
10630 12682 12681 1
10631 12683 12681 1
10632 12684 12681 1
10633 12685 12684 1
10634 12687 12686 1
10635 12688 12687 1
10636 12689 12687 1
10637 12690 12687 1
10638 12691 12690 1
10639 12693 12692 1
10640 12694 12693 1
10641 12695 12693 1
10642 12696 12693 1
10643 12697 12696 1
10644 12699 12698 1
10645 12700 12699 1
10646 12701 12699 1
10647 12702 12699 1
10648 12703 12702 1
10649 12705 12704 1
10650 12706 12705 1
10651 12707 12705 1
10652 12708 12705 1
10653 12709 12708 1
10654 12711 12710 1
10655 12712 12711 1
10656 12713 12711 1
10657 12714 12711 1
10658 12715 12714 1
10659 12717 12716 1
10660 12718 12717 1
10661 12719 12717 1
10662 12720 12717 1
10663 12721 12720 1
10664 12723 12722 1
10665 12724 12723 1
10666 12725 12723 1
10667 12726 12723 1
10668 12727 12726 1
10669 12729 12728 1
10670 12730 12729 1
10671 12731 12729 1
10672 12732 12729 1
10673 12733 12732 1
10674 12735 12734 1
10675 12736 12735 1
10676 12737 12735 1
10677 12738 12735 1
10678 12739 12738 1
10679 12741 12740 1
10680 12742 12741 1
10681 12743 12741 1
10682 12744 12741 1
10683 12745 12744 1
10684 12747 12746 1
10685 12748 12747 1
10686 12749 12747 1
10687 12750 12747 1
10688 12751 12750 1
10689 12753 12752 1
10690 12754 12753 1
10691 12755 12753 1
10692 12756 12753 1
10693 12757 12756 1
10694 12759 12758 1
10695 12760 12759 1
10696 12761 12759 1
10697 12762 12759 1
10698 12763 12762 1
10699 12765 12764 1
10700 12766 12765 1
10701 12767 12765 1
10702 12768 12765 1
10703 12769 12768 1
10704 12771 12770 1
10705 12772 12771 1
10706 12773 12771 1
10707 12774 12771 1
10708 12775 12774 1
10709 12777 12776 1
10710 12778 12777 1
10711 12779 12777 1
10712 12780 12777 1
10713 12781 12780 1
10714 12783 12782 1
10715 12784 12783 1
10716 12785 12783 1
10717 12786 12783 1
10718 12787 12786 1
10719 12789 12788 1
10720 12790 12789 1
10721 12791 12789 1
10722 12792 12789 1
10723 12793 12792 1
10724 12795 12794 1
10725 12796 12795 1
10726 12797 12795 1
10727 12798 12795 1
10728 12799 12798 1
10729 12801 12800 1
10730 12802 12801 1
10731 12803 12801 1
10732 12804 12801 1
10733 12805 12804 1
10734 12807 12806 1
10735 12808 12807 1
10736 12809 12807 1
10737 12810 12807 1
10738 12811 12810 1
10739 12813 12812 1
10740 12814 12813 1
10741 12815 12813 1
10742 12816 12813 1
10743 12817 12816 1
10744 12819 12818 1
10745 12820 12819 1
10746 12821 12819 1
10747 12822 12819 1
10748 12823 12822 1
10749 12825 12824 1
10750 12826 12825 1
10751 12827 12825 1
10752 12828 12825 1
10753 12829 12828 1
10754 12831 12830 1
10755 12832 12831 1
10756 12833 12831 1
10757 12834 12831 1
10758 12835 12834 1
10759 12837 12836 1
10760 12838 12837 1
10761 12839 12837 1
10762 12840 12837 1
10763 12841 12840 1
10764 12843 12842 1
10765 12844 12843 1
10766 12845 12843 1
10767 12846 12843 1
10768 12847 12846 1
10769 12849 12848 1
10770 12850 12849 1
10771 12851 12849 1
10772 12852 12849 1
10773 12853 12852 1
10774 12855 12854 1
10775 12856 12855 1
10776 12857 12855 1
10777 12858 12855 1
10778 12859 12858 1
10779 12861 12860 1
10780 12862 12861 1
10781 12863 12861 1
10782 12864 12861 1
10783 12865 12864 1
10784 12867 12866 1
10785 12868 12867 1
10786 12869 12867 1
10787 12870 12867 1
10788 12871 12870 1
10789 12873 12872 1
10790 12874 12873 1
10791 12875 12873 1
10792 12876 12873 1
10793 12877 12876 1
10794 12879 12878 1
10795 12880 12879 1
10796 12881 12879 1
10797 12882 12879 1
10798 12883 12882 1
10799 12885 12884 1
10800 12886 12885 1
10801 12887 12885 1
10802 12888 12885 1
10803 12889 12888 1
10804 12891 12890 1
10805 12892 12891 1
10806 12893 12891 1
10807 12894 12891 1
10808 12895 12894 1
10809 12897 12896 1
10810 12898 12897 1
10811 12899 12897 1
10812 12900 12897 1
10813 12901 12900 1
10814 12903 12902 1
10815 12904 12903 1
10816 12905 12903 1
10817 12906 12903 1
10818 12907 12906 1
10819 12909 12908 1
10820 12910 12909 1
10821 12911 12909 1
10822 12912 12909 1
10823 12913 12912 1
10824 12915 12914 1
10825 12916 12915 1
10826 12917 12915 1
10827 12918 12915 1
10828 12919 12918 1
10829 12921 12920 1
10830 12922 12921 1
10831 12923 12921 1
10832 12924 12921 1
10833 12925 12924 1
10834 12927 12926 1
10835 12928 12927 1
10836 12929 12927 1
10837 12930 12927 1
10838 12931 12930 1
10839 12933 12932 1
10840 12934 12933 1
10841 12935 12933 1
10842 12936 12933 1
10843 12937 12936 1
10844 12939 12938 1
10845 12940 12939 1
10846 12941 12939 1
10847 12942 12939 1
10848 12943 12942 1
10849 12945 12944 1
10850 12946 12945 1
10851 12947 12945 1
10852 12948 12945 1
10853 12949 12948 1
10854 12951 12950 1
10855 12952 12951 1
10856 12953 12951 1
10857 12954 12951 1
10858 12955 12954 1
10859 12957 12956 1
10860 12958 12957 1
10861 12959 12957 1
10862 12960 12957 1
10863 12961 12960 1
10864 12963 12962 1
10865 12964 12963 1
10866 12965 12963 1
10867 12966 12963 1
10868 12967 12966 1
10869 12969 12968 1
10870 12970 12969 1
10871 12971 12969 1
10872 12972 12969 1
10873 12973 12972 1
10874 12975 12974 1
10875 12976 12975 1
10876 12977 12975 1
10877 12978 12975 1
10878 12979 12978 1
10879 12981 12980 1
10880 12982 12981 1
10881 12983 12981 1
10882 12984 12981 1
10883 12985 12984 1
10884 12987 12986 1
10885 12988 12987 1
10886 12989 12987 1
10887 12990 12987 1
10888 12991 12990 1
10889 12993 12992 1
10890 12994 12993 1
10891 12995 12993 1
10892 12996 12993 1
10893 12997 12996 1
10894 12999 12998 1
10895 13000 12999 1
10896 13001 12999 1
10897 13002 12999 1
10898 13003 13002 1
10899 13005 13004 1
10900 13006 13005 1
10901 13007 13005 1
10902 13008 13005 1
10903 13009 13008 1
10904 13011 13010 1
10905 13012 13011 1
10906 13013 13011 1
10907 13014 13011 1
10908 13015 13014 1
10909 13017 13016 1
10910 13018 13017 1
10911 13019 13017 1
10912 13020 13017 1
10913 13021 13020 1
10914 13023 13022 1
10915 13024 13023 1
10916 13025 13023 1
10917 13026 13023 1
10918 13027 13026 1
10919 13029 13028 1
10920 13030 13029 1
10921 13031 13029 1
10922 13032 13029 1
10923 13033 13032 1
10924 13035 13034 1
10925 13036 13035 1
10926 13037 13035 1
10927 13038 13035 1
10928 13039 13038 1
10929 13041 13040 1
10930 13042 13041 1
10931 13043 13041 1
10932 13044 13041 1
10933 13045 13044 1
10934 13047 13046 1
10935 13048 13047 1
10936 13049 13047 1
10937 13050 13047 1
10938 13051 13050 1
10939 13053 13052 1
10940 13054 13053 1
10941 13055 13053 1
10942 13056 13053 1
10943 13057 13056 1
10944 13059 13058 1
10945 13060 13059 1
10946 13061 13059 1
10947 13062 13059 1
10948 13063 13062 1
10949 13065 13064 1
10950 13066 13065 1
10951 13067 13065 1
10952 13068 13065 1
10953 13069 13068 1
10954 13071 13070 1
10955 13072 13071 1
10956 13073 13071 1
10957 13074 13071 1
10958 13075 13074 1
10959 13077 13076 1
10960 13078 13077 1
10961 13079 13077 1
10962 13080 13077 1
10963 13081 13080 1
10964 13083 13082 1
10965 13084 13083 1
10966 13085 13083 1
10967 13086 13083 1
10968 13087 13086 1
10969 13089 13088 1
10970 13090 13089 1
10971 13091 13089 1
10972 13092 13089 1
10973 13093 13092 1
10974 13095 13094 1
10975 13096 13095 1
10976 13097 13095 1
10977 13098 13095 1
10978 13099 13098 1
10979 13101 13100 1
10980 13102 13101 1
10981 13103 13101 1
10982 13104 13101 1
10983 13105 13104 1
10984 13107 13106 1
10985 13108 13107 1
10986 13109 13107 1
10987 13110 13107 1
10988 13111 13110 1
10989 13113 13112 1
10990 13114 13113 1
10991 13115 13113 1
10992 13116 13113 1
10993 13117 13116 1
10994 13119 13118 1
10995 13120 13119 1
10996 13121 13119 1
10997 13122 13119 1
10998 13123 13122 1
10999 13125 13124 1
11000 13126 13125 1
11001 13127 13125 1
11002 13128 13125 1
11003 13129 13128 1
11004 13131 13130 1
11005 13132 13131 1
11006 13133 13131 1
11007 13134 13131 1
11008 13135 13134 1
11009 13137 13136 1
11010 13138 13137 1
11011 13139 13137 1
11012 13140 13137 1
11013 13141 13140 1
11014 13143 13142 1
11015 13144 13143 1
11016 13145 13143 1
11017 13146 13143 1
11018 13147 13146 1
11019 13149 13148 1
11020 13150 13149 1
11021 13151 13149 1
11022 13152 13149 1
11023 13153 13152 1
11024 13155 13154 1
11025 13156 13155 1
11026 13157 13155 1
11027 13158 13155 1
11028 13159 13158 1
11029 13161 13160 1
11030 13162 13161 1
11031 13163 13161 1
11032 13164 13161 1
11033 13165 13164 1
11034 13167 13166 1
11035 13168 13167 1
11036 13169 13167 1
11037 13170 13167 1
11038 13171 13170 1
11039 13173 13172 1
11040 13174 13173 1
11041 13175 13173 1
11042 13176 13173 1
11043 13177 13176 1
11044 13179 13178 1
11045 13180 13179 1
11046 13181 13179 1
11047 13182 13179 1
11048 13183 13182 1
11049 13185 13184 1
11050 13186 13185 1
11051 13187 13185 1
11052 13188 13185 1
11053 13189 13188 1
11054 13191 13190 1
11055 13192 13191 1
11056 13193 13191 1
11057 13194 13191 1
11058 13195 13194 1
11059 13197 13196 1
11060 13198 13197 1
11061 13199 13197 1
11062 13200 13197 1
11063 13201 13200 1
11064 13203 13202 1
11065 13204 13203 1
11066 13205 13203 1
11067 13206 13203 1
11068 13207 13206 1
11069 13209 13208 1
11070 13210 13209 1
11071 13211 13209 1
11072 13212 13209 1
11073 13213 13212 1
11074 13215 13214 1
11075 13216 13215 1
11076 13217 13215 1
11077 13218 13215 1
11078 13219 13218 1
11079 13221 13220 1
11080 13222 13221 1
11081 13223 13221 1
11082 13224 13221 1
11083 13225 13224 1
11084 13227 13226 1
11085 13228 13227 1
11086 13229 13227 1
11087 13230 13227 1
11088 13231 13230 1
11089 13233 13232 1
11090 13234 13233 1
11091 13235 13233 1
11092 13236 13233 1
11093 13237 13236 1
11094 13239 13238 1
11095 13240 13239 1
11096 13241 13239 1
11097 13242 13239 1
11098 13243 13242 1
11099 13245 13244 1
11100 13246 13245 1
11101 13247 13245 1
11102 13248 13245 1
11103 13249 13248 1
11104 13251 13250 1
11105 13252 13251 1
11106 13253 13251 1
11107 13254 13251 1
11108 13255 13254 1
11109 13257 13256 1
11110 13258 13257 1
11111 13259 13257 1
11112 13260 13257 1
11113 13261 13260 1
11114 13263 13262 1
11115 13264 13263 1
11116 13265 13263 1
11117 13266 13263 1
11118 13267 13266 1
11119 13269 13268 1
11120 13270 13269 1
11121 13271 13269 1
11122 13272 13269 1
11123 13273 13272 1
11124 13275 13274 1
11125 13276 13275 1
11126 13277 13275 1
11127 13278 13275 1
11128 13279 13278 1
11129 13281 13280 1
11130 13282 13281 1
11131 13283 13281 1
11132 13284 13281 1
11133 13285 13284 1
11134 13287 13286 1
11135 13288 13287 1
11136 13289 13287 1
11137 13290 13287 1
11138 13291 13290 1
11139 13293 13292 1
11140 13294 13293 1
11141 13295 13293 1
11142 13296 13293 1
11143 13297 13296 1
11144 13299 13298 1
11145 13300 13299 1
11146 13301 13299 1
11147 13302 13299 1
11148 13303 13302 1
11149 13305 13304 1
11150 13306 13305 1
11151 13307 13305 1
11152 13308 13305 1
11153 13309 13308 1
11154 13311 13310 1
11155 13312 13311 1
11156 13313 13311 1
11157 13314 13311 1
11158 13315 13314 1
11159 13317 13316 1
11160 13318 13317 1
11161 13319 13317 1
11162 13320 13317 1
11163 13321 13320 1
11164 13323 13322 1
11165 13324 13323 1
11166 13325 13323 1
11167 13326 13323 1
11168 13327 13326 1
11169 13329 13328 1
11170 13330 13329 1
11171 13331 13329 1
11172 13332 13329 1
11173 13333 13332 1
11174 13335 13334 1
11175 13336 13335 1
11176 13337 13335 1
11177 13338 13335 1
11178 13339 13338 1
11179 13341 13340 1
11180 13342 13341 1
11181 13343 13341 1
11182 13344 13341 1
11183 13345 13344 1
11184 13347 13346 1
11185 13348 13347 1
11186 13349 13347 1
11187 13350 13347 1
11188 13351 13350 1
11189 13353 13352 1
11190 13354 13353 1
11191 13355 13353 1
11192 13356 13353 1
11193 13357 13356 1
11194 13359 13358 1
11195 13360 13359 1
11196 13361 13359 1
11197 13362 13359 1
11198 13363 13362 1
11199 13365 13364 1
11200 13366 13365 1
11201 13367 13365 1
11202 13368 13365 1
11203 13369 13368 1
11204 13371 13370 1
11205 13372 13371 1
11206 13373 13371 1
11207 13374 13371 1
11208 13375 13374 1
11209 13377 13376 1
11210 13378 13377 1
11211 13379 13377 1
11212 13380 13377 1
11213 13381 13380 1
11214 13383 13382 1
11215 13384 13383 1
11216 13385 13383 1
11217 13386 13383 1
11218 13387 13386 1
11219 13389 13388 1
11220 13390 13389 1
11221 13391 13389 1
11222 13392 13389 1
11223 13393 13392 1
11224 13395 13394 1
11225 13396 13395 1
11226 13397 13395 1
11227 13398 13395 1
11228 13399 13398 1
11229 13401 13400 1
11230 13402 13401 1
11231 13403 13401 1
11232 13404 13401 1
11233 13405 13404 1
11234 13407 13406 1
11235 13408 13407 1
11236 13409 13407 1
11237 13410 13407 1
11238 13411 13410 1
11239 13413 13412 1
11240 13414 13413 1
11241 13415 13413 1
11242 13416 13413 1
11243 13417 13416 1
11244 13419 13418 1
11245 13420 13419 1
11246 13421 13419 1
11247 13422 13419 1
11248 13423 13422 1
11249 13425 13424 1
11250 13426 13425 1
11251 13427 13425 1
11252 13428 13425 1
11253 13429 13428 1
11254 13431 13430 1
11255 13432 13431 1
11256 13433 13431 1
11257 13434 13431 1
11258 13435 13434 1
11259 13437 13436 1
11260 13438 13437 1
11261 13439 13437 1
11262 13440 13437 1
11263 13441 13440 1
11264 13443 13442 1
11265 13444 13443 1
11266 13445 13443 1
11267 13446 13443 1
11268 13447 13446 1
11269 13449 13448 1
11270 13450 13449 1
11271 13451 13449 1
11272 13452 13449 1
11273 13453 13452 1
11274 13455 13454 1
11275 13456 13455 1
11276 13457 13455 1
11277 13458 13455 1
11278 13459 13458 1
11279 13461 13460 1
11280 13462 13461 1
11281 13463 13461 1
11282 13464 13461 1
11283 13465 13464 1
11284 13467 13466 1
11285 13468 13467 1
11286 13469 13467 1
11287 13470 13467 1
11288 13471 13470 1
11289 13473 13472 1
11290 13474 13473 1
11291 13475 13473 1
11292 13476 13473 1
11293 13477 13476 1
11294 13479 13478 1
11295 13480 13479 1
11296 13481 13479 1
11297 13482 13479 1
11298 13483 13482 1
11299 13485 13484 1
11300 13486 13485 1
11301 13487 13485 1
11302 13488 13485 1
11303 13489 13488 1
11304 13491 13490 1
11305 13492 13491 1
11306 13493 13491 1
11307 13494 13491 1
11308 13495 13494 1
11309 13497 13496 1
11310 13498 13497 1
11311 13499 13497 1
11312 13500 13497 1
11313 13501 13500 1
11314 13503 13502 1
11315 13504 13503 1
11316 13505 13503 1
11317 13506 13503 1
11318 13507 13506 1
11319 13509 13508 1
11320 13510 13509 1
11321 13511 13509 1
11322 13512 13509 1
11323 13513 13512 1
11324 13515 13514 1
11325 13516 13515 1
11326 13517 13515 1
11327 13518 13515 1
11328 13519 13518 1
11329 13521 13520 1
11330 13522 13521 1
11331 13523 13521 1
11332 13524 13521 1
11333 13525 13524 1
11334 13527 13526 1
11335 13528 13527 1
11336 13529 13527 1
11337 13530 13527 1
11338 13531 13530 1
11339 13533 13532 1
11340 13534 13533 1
11341 13535 13533 1
11342 13536 13533 1
11343 13537 13536 1
11344 13539 13538 1
11345 13540 13539 1
11346 13541 13539 1
11347 13542 13539 1
11348 13543 13542 1
11349 13545 13544 1
11350 13546 13545 1
11351 13547 13545 1
11352 13548 13545 1
11353 13549 13548 1
11354 13551 13550 1
11355 13552 13551 1
11356 13553 13551 1
11357 13554 13551 1
11358 13555 13554 1
11359 13557 13556 1
11360 13558 13557 1
11361 13559 13557 1
11362 13560 13557 1
11363 13561 13560 1
11364 13563 13562 1
11365 13564 13563 1
11366 13565 13563 1
11367 13566 13563 1
11368 13567 13566 1
11369 13569 13568 1
11370 13570 13569 1
11371 13571 13569 1
11372 13572 13569 1
11373 13573 13572 1
11374 13575 13574 1
11375 13576 13575 1
11376 13577 13575 1
11377 13578 13575 1
11378 13579 13578 1
11379 13581 13580 1
11380 13582 13581 1
11381 13583 13581 1
11382 13584 13581 1
11383 13585 13584 1
11384 13587 13586 1
11385 13588 13587 1
11386 13589 13587 1
11387 13590 13587 1
11388 13591 13590 1
11389 13593 13592 1
11390 13594 13593 1
11391 13595 13593 1
11392 13596 13593 1
11393 13597 13596 1
11394 13599 13598 1
11395 13600 13599 1
11396 13601 13599 1
11397 13602 13599 1
11398 13603 13602 1
11399 13605 13604 1
11400 13606 13605 1
11401 13607 13605 1
11402 13608 13605 1
11403 13609 13608 1
11404 13611 13610 1
11405 13612 13611 1
11406 13613 13611 1
11407 13614 13611 1
11408 13615 13614 1
11409 13617 13616 1
11410 13618 13617 1
11411 13619 13617 1
11412 13620 13617 1
11413 13621 13620 1
11414 13623 13622 1
11415 13624 13623 1
11416 13625 13623 1
11417 13626 13623 1
11418 13627 13626 1
11419 13629 13628 1
11420 13630 13629 1
11421 13631 13629 1
11422 13632 13629 1
11423 13633 13632 1
11424 13635 13634 1
11425 13636 13635 1
11426 13637 13635 1
11427 13638 13635 1
11428 13639 13638 1
11429 13641 13640 1
11430 13642 13641 1
11431 13643 13641 1
11432 13644 13641 1
11433 13645 13644 1
11434 13647 13646 1
11435 13648 13647 1
11436 13649 13647 1
11437 13650 13647 1
11438 13651 13650 1
11439 13653 13652 1
11440 13654 13653 1
11441 13655 13653 1
11442 13656 13653 1
11443 13657 13656 1
11444 13659 13658 1
11445 13660 13659 1
11446 13661 13659 1
11447 13662 13659 1
11448 13663 13662 1
11449 13665 13664 1
11450 13666 13665 1
11451 13667 13665 1
11452 13668 13665 1
11453 13669 13668 1
11454 13671 13670 1
11455 13672 13671 1
11456 13673 13671 1
11457 13674 13671 1
11458 13675 13674 1
11459 13677 13676 1
11460 13678 13677 1
11461 13679 13677 1
11462 13680 13677 1
11463 13681 13680 1
11464 13683 13682 1
11465 13684 13683 1
11466 13685 13683 1
11467 13686 13683 1
11468 13687 13686 1
11469 13689 13688 1
11470 13690 13689 1
11471 13691 13689 1
11472 13692 13689 1
11473 13693 13692 1
11474 13695 13694 1
11475 13696 13695 1
11476 13697 13695 1
11477 13698 13695 1
11478 13699 13698 1
11479 13701 13700 1
11480 13702 13701 1
11481 13703 13701 1
11482 13704 13701 1
11483 13705 13704 1
11484 13707 13706 1
11485 13708 13707 1
11486 13709 13707 1
11487 13710 13707 1
11488 13711 13710 1
11489 13713 13712 1
11490 13714 13713 1
11491 13715 13713 1
11492 13716 13713 1
11493 13717 13716 1
11494 13719 13718 1
11495 13720 13719 1
11496 13721 13719 1
11497 13722 13719 1
11498 13723 13722 1
11499 13725 13724 1
11500 13726 13725 1
11501 13727 13725 1
11502 13728 13725 1
11503 13729 13728 1
11504 13731 13730 1
11505 13732 13731 1
11506 13733 13731 1
11507 13734 13731 1
11508 13735 13734 1
11509 13737 13736 1
11510 13738 13737 1
11511 13739 13737 1
11512 13740 13737 1
11513 13741 13740 1
11514 13743 13742 1
11515 13744 13743 1
11516 13745 13743 1
11517 13746 13743 1
11518 13747 13746 1
11519 13749 13748 1
11520 13750 13749 1
11521 13751 13749 1
11522 13752 13749 1
11523 13753 13752 1
11524 13755 13754 1
11525 13756 13755 1
11526 13757 13755 1
11527 13758 13755 1
11528 13759 13758 1
11529 13761 13760 1
11530 13762 13761 1
11531 13763 13761 1
11532 13764 13761 1
11533 13765 13764 1
11534 13767 13766 1
11535 13768 13767 1
11536 13769 13767 1
11537 13770 13767 1
11538 13771 13770 1
11539 13773 13772 1
11540 13774 13773 1
11541 13775 13773 1
11542 13776 13773 1
11543 13777 13776 1
11544 13779 13778 1
11545 13780 13779 1
11546 13781 13779 1
11547 13782 13779 1
11548 13783 13782 1
11549 13785 13784 1
11550 13786 13785 1
11551 13787 13785 1
11552 13788 13785 1
11553 13789 13788 1
11554 13791 13790 1
11555 13792 13791 1
11556 13793 13791 1
11557 13794 13791 1
11558 13795 13794 1
11559 13797 13796 1
11560 13798 13797 1
11561 13799 13797 1
11562 13800 13797 1
11563 13801 13800 1
11564 13803 13802 1
11565 13804 13803 1
11566 13805 13803 1
11567 13806 13803 1
11568 13807 13806 1
11569 13809 13808 1
11570 13810 13809 1
11571 13811 13809 1
11572 13812 13809 1
11573 13813 13812 1
11574 13815 13814 1
11575 13816 13815 1
11576 13817 13815 1
11577 13818 13815 1
11578 13819 13818 1
11579 13821 13820 1
11580 13822 13821 1
11581 13823 13821 1
11582 13824 13821 1
11583 13825 13824 1
11584 13827 13826 1
11585 13828 13827 1
11586 13829 13827 1
11587 13830 13827 1
11588 13831 13830 1
11589 13833 13832 1
11590 13834 13833 1
11591 13835 13833 1
11592 13836 13833 1
11593 13837 13836 1
11594 13839 13838 1
11595 13840 13839 1
11596 13841 13839 1
11597 13842 13839 1
11598 13843 13842 1
11599 13845 13844 1
11600 13846 13845 1
11601 13847 13845 1
11602 13848 13845 1
11603 13849 13848 1
11604 13851 13850 1
11605 13852 13851 1
11606 13853 13851 1
11607 13854 13851 1
11608 13855 13854 1
11609 13857 13856 1
11610 13858 13857 1
11611 13859 13857 1
11612 13860 13857 1
11613 13861 13860 1
11614 13863 13862 1
11615 13864 13863 1
11616 13865 13863 1
11617 13866 13863 1
11618 13867 13866 1
11619 13869 13868 1
11620 13870 13869 1
11621 13871 13869 1
11622 13872 13869 1
11623 13873 13872 1
11624 13875 13874 1
11625 13876 13875 1
11626 13877 13875 1
11627 13878 13875 1
11628 13879 13878 1
11629 13881 13880 1
11630 13882 13881 1
11631 13883 13881 1
11632 13884 13881 1
11633 13885 13884 1
11634 13887 13886 1
11635 13888 13887 1
11636 13889 13887 1
11637 13890 13887 1
11638 13891 13890 1
11639 13893 13892 1
11640 13894 13893 1
11641 13895 13893 1
11642 13896 13893 1
11643 13897 13896 1
11644 13899 13898 1
11645 13900 13899 1
11646 13901 13899 1
11647 13902 13899 1
11648 13903 13902 1
11649 13905 13904 1
11650 13906 13905 1
11651 13907 13905 1
11652 13908 13905 1
11653 13909 13908 1
11654 13911 13910 1
11655 13912 13911 1
11656 13913 13911 1
11657 13914 13911 1
11658 13915 13914 1
11659 13917 13916 1
11660 13918 13917 1
11661 13919 13917 1
11662 13920 13917 1
11663 13921 13920 1
11664 13923 13922 1
11665 13924 13923 1
11666 13925 13923 1
11667 13926 13923 1
11668 13927 13926 1
11669 13929 13928 1
11670 13930 13929 1
11671 13931 13929 1
11672 13932 13929 1
11673 13933 13932 1
11674 13935 13934 1
11675 13936 13935 1
11676 13937 13935 1
11677 13938 13935 1
11678 13939 13938 1
11679 13941 13940 1
11680 13942 13941 1
11681 13943 13941 1
11682 13944 13941 1
11683 13945 13944 1
11684 13947 13946 1
11685 13948 13947 1
11686 13949 13947 1
11687 13950 13947 1
11688 13951 13950 1
11689 13953 13952 1
11690 13954 13953 1
11691 13955 13953 1
11692 13956 13953 1
11693 13957 13956 1
11694 13959 13958 1
11695 13960 13959 1
11696 13961 13959 1
11697 13962 13959 1
11698 13963 13962 1
11699 13965 13964 1
11700 13966 13965 1
11701 13967 13965 1
11702 13968 13965 1
11703 13969 13968 1
11704 13971 13970 1
11705 13972 13971 1
11706 13973 13971 1
11707 13974 13971 1
11708 13975 13974 1
11709 13977 13976 1
11710 13978 13977 1
11711 13979 13977 1
11712 13980 13977 1
11713 13981 13980 1
11714 13983 13982 1
11715 13984 13983 1
11716 13985 13983 1
11717 13986 13983 1
11718 13987 13986 1
11719 13989 13988 1
11720 13990 13989 1
11721 13991 13989 1
11722 13992 13989 1
11723 13993 13992 1
11724 13995 13994 1
11725 13996 13995 1
11726 13997 13995 1
11727 13998 13995 1
11728 13999 13998 1
11729 14001 14000 1
11730 14002 14001 1
11731 14003 14001 1
11732 14004 14001 1
11733 14005 14004 1
11734 14007 14006 1
11735 14008 14007 1
11736 14009 14007 1
11737 14010 14007 1
11738 14011 14010 1
11739 14013 14012 1
11740 14014 14013 1
11741 14015 14013 1
11742 14016 14013 1
11743 14017 14016 1
11744 14019 14018 1
11745 14020 14019 1
11746 14021 14019 1
11747 14022 14019 1
11748 14023 14022 1
11749 14025 14024 1
11750 14026 14025 1
11751 14027 14025 1
11752 14028 14025 1
11753 14029 14028 1
11754 14031 14030 1
11755 14032 14031 1
11756 14033 14031 1
11757 14034 14031 1
11758 14035 14034 1
11759 14037 14036 1
11760 14038 14037 1
11761 14039 14037 1
11762 14040 14037 1
11763 14041 14040 1
11764 14043 14042 1
11765 14044 14043 1
11766 14045 14043 1
11767 14046 14043 1
11768 14047 14046 1
11769 14049 14048 1
11770 14050 14049 1
11771 14051 14049 1
11772 14052 14049 1
11773 14053 14052 1
11774 14055 14054 1
11775 14056 14055 1
11776 14057 14055 1
11777 14058 14055 1
11778 14059 14058 1
11779 14061 14060 1
11780 14062 14061 1
11781 14063 14061 1
11782 14064 14061 1
11783 14065 14064 1
11784 14067 14066 1
11785 14068 14067 1
11786 14069 14067 1
11787 14070 14067 1
11788 14071 14070 1
11789 14073 14072 1
11790 14074 14073 1
11791 14075 14073 1
11792 14076 14073 1
11793 14077 14076 1
11794 14079 14078 1
11795 14080 14079 1
11796 14081 14079 1
11797 14082 14079 1
11798 14083 14082 1
11799 14085 14084 1
11800 14086 14085 1
11801 14087 14085 1
11802 14088 14085 1
11803 14089 14088 1
11804 14091 14090 1
11805 14092 14091 1
11806 14093 14091 1
11807 14094 14091 1
11808 14095 14094 1
11809 14097 14096 1
11810 14098 14097 1
11811 14099 14097 1
11812 14100 14097 1
11813 14101 14100 1
11814 14103 14102 1
11815 14104 14103 1
11816 14105 14103 1
11817 14106 14103 1
11818 14107 14106 1
11819 14109 14108 1
11820 14110 14109 1
11821 14111 14109 1
11822 14112 14109 1
11823 14113 14112 1
11824 14115 14114 1
11825 14116 14115 1
11826 14117 14115 1
11827 14118 14115 1
11828 14119 14118 1
11829 14121 14120 1
11830 14122 14121 1
11831 14123 14121 1
11832 14124 14121 1
11833 14125 14124 1
11834 14127 14126 1
11835 14128 14127 1
11836 14129 14127 1
11837 14130 14127 1
11838 14131 14130 1
11839 14133 14132 1
11840 14134 14133 1
11841 14135 14133 1
11842 14136 14133 1
11843 14137 14136 1
11844 14139 14138 1
11845 14140 14139 1
11846 14141 14139 1
11847 14142 14139 1
11848 14143 14142 1
11849 14145 14144 1
11850 14146 14145 1
11851 14147 14145 1
11852 14148 14145 1
11853 14149 14148 1
11854 14151 14150 1
11855 14152 14151 1
11856 14153 14151 1
11857 14154 14151 1
11858 14155 14154 1
11859 14157 14156 1
11860 14158 14157 1
11861 14159 14157 1
11862 14160 14157 1
11863 14161 14160 1
11864 14163 14162 1
11865 14164 14163 1
11866 14165 14163 1
11867 14166 14163 1
11868 14167 14166 1
11869 14169 14168 1
11870 14170 14169 1
11871 14171 14169 1
11872 14172 14169 1
11873 14173 14172 1
11874 14175 14174 1
11875 14176 14175 1
11876 14177 14175 1
11877 14178 14175 1
11878 14179 14178 1
11879 14181 14180 1
11880 14182 14181 1
11881 14183 14181 1
11882 14184 14181 1
11883 14185 14184 1
11884 14187 14186 1
11885 14188 14187 1
11886 14189 14187 1
11887 14190 14187 1
11888 14191 14190 1
11889 14193 14192 1
11890 14194 14193 1
11891 14195 14193 1
11892 14196 14193 1
11893 14197 14196 1
11894 14199 14198 1
11895 14200 14199 1
11896 14201 14199 1
11897 14202 14199 1
11898 14203 14202 1
11899 14205 14204 1
11900 14206 14205 1
11901 14207 14205 1
11902 14208 14205 1
11903 14209 14208 1
11904 14211 14210 1
11905 14212 14211 1
11906 14213 14211 1
11907 14214 14211 1
11908 14215 14214 1
11909 14217 14216 1
11910 14218 14217 1
11911 14219 14217 1
11912 14220 14217 1
11913 14221 14220 1
11914 14223 14222 1
11915 14224 14223 1
11916 14225 14223 1
11917 14226 14223 1
11918 14227 14226 1
11919 14229 14228 1
11920 14230 14229 1
11921 14231 14229 1
11922 14232 14229 1
11923 14233 14232 1
11924 14235 14234 1
11925 14236 14235 1
11926 14237 14235 1
11927 14238 14235 1
11928 14239 14238 1
11929 14241 14240 1
11930 14242 14241 1
11931 14243 14241 1
11932 14244 14241 1
11933 14245 14244 1
11934 14247 14246 1
11935 14248 14247 1
11936 14249 14247 1
11937 14250 14247 1
11938 14251 14250 1
11939 14253 14252 1
11940 14254 14253 1
11941 14255 14253 1
11942 14256 14253 1
11943 14257 14256 1
11944 14259 14258 1
11945 14260 14259 1
11946 14261 14259 1
11947 14262 14259 1
11948 14263 14262 1
11949 14265 14264 1
11950 14266 14265 1
11951 14267 14265 1
11952 14268 14265 1
11953 14269 14268 1
11954 14271 14270 1
11955 14272 14271 1
11956 14273 14271 1
11957 14274 14271 1
11958 14275 14274 1
11959 14277 14276 1
11960 14278 14277 1
11961 14279 14277 1
11962 14280 14277 1
11963 14281 14280 1
11964 14283 14282 1
11965 14284 14283 1
11966 14285 14283 1
11967 14286 14283 1
11968 14287 14286 1
11969 14289 14288 1
11970 14290 14289 1
11971 14291 14289 1
11972 14292 14289 1
11973 14293 14292 1
11974 14295 14294 1
11975 14296 14295 1
11976 14297 14295 1
11977 14298 14295 1
11978 14299 14298 1
11979 14301 14300 1
11980 14302 14301 1
11981 14303 14301 1
11982 14304 14301 1
11983 14305 14304 1
11984 14307 14306 1
11985 14308 14307 1
11986 14309 14307 1
11987 14310 14307 1
11988 14311 14310 1
11989 14313 14312 1
11990 14314 14313 1
11991 14315 14313 1
11992 14316 14313 1
11993 14317 14316 1
11994 14319 14318 1
11995 14320 14319 1
11996 14321 14319 1
11997 14322 14319 1
11998 14323 14322 1
11999 14325 14324 1
12000 14326 14325 1
12001 14327 14325 1
12002 14328 14325 1
12003 14329 14328 1
12004 14331 14330 1
12005 14332 14331 1
12006 14333 14331 1
12007 14334 14331 1
12008 14335 14334 1
12009 14337 14336 1
12010 14338 14337 1
12011 14339 14337 1
12012 14340 14337 1
12013 14341 14340 1
12014 14343 14342 1
12015 14344 14343 1
12016 14345 14343 1
12017 14346 14343 1
12018 14347 14346 1
12019 14349 14348 1
12020 14350 14349 1
12021 14351 14349 1
12022 14352 14349 1
12023 14353 14352 1
12024 14355 14354 1
12025 14356 14355 1
12026 14357 14355 1
12027 14358 14355 1
12028 14359 14358 1
12029 14361 14360 1
12030 14362 14361 1
12031 14363 14361 1
12032 14364 14361 1
12033 14365 14364 1
12034 14367 14366 1
12035 14368 14367 1
12036 14369 14367 1
12037 14370 14367 1
12038 14371 14370 1
12039 14373 14372 1
12040 14374 14373 1
12041 14375 14373 1
12042 14376 14373 1
12043 14377 14376 1
12044 14379 14378 1
12045 14380 14379 1
12046 14381 14379 1
12047 14382 14379 1
12048 14383 14382 1
12049 14385 14384 1
12050 14386 14385 1
12051 14387 14385 1
12052 14388 14385 1
12053 14389 14388 1
12054 14391 14390 1
12055 14392 14391 1
12056 14393 14391 1
12057 14394 14391 1
12058 14395 14394 1
12059 14397 14396 1
12060 14398 14397 1
12061 14399 14397 1
12062 14400 14397 1
12063 14401 14400 1
12064 14403 14402 1
12065 14404 14403 1
12066 14405 14403 1
12067 14406 14403 1
12068 14407 14406 1
12069 14409 14408 1
12070 14410 14409 1
12071 14411 14409 1
12072 14412 14409 1
12073 14413 14412 1
12074 14415 14414 1
12075 14416 14415 1
12076 14417 14415 1
12077 14418 14415 1
12078 14419 14418 1
12079 14421 14420 1
12080 14422 14421 1
12081 14423 14421 1
12082 14424 14421 1
12083 14425 14424 1
12084 14427 14426 1
12085 14428 14427 1
12086 14429 14427 1
12087 14430 14427 1
12088 14431 14430 1
12089 14433 14432 1
12090 14434 14433 1
12091 14435 14433 1
12092 14436 14433 1
12093 14437 14436 1
12094 14439 14438 1
12095 14440 14439 1
12096 14441 14439 1
12097 14442 14439 1
12098 14443 14442 1
12099 14445 14444 1
12100 14446 14445 1
12101 14447 14445 1
12102 14448 14445 1
12103 14449 14448 1
12104 14451 14450 1
12105 14452 14451 1
12106 14453 14451 1
12107 14454 14451 1
12108 14455 14454 1
12109 14457 14456 1
12110 14458 14457 1
12111 14459 14457 1
12112 14460 14457 1
12113 14461 14460 1
12114 14463 14462 1
12115 14464 14463 1
12116 14465 14463 1
12117 14466 14463 1
12118 14467 14466 1
12119 14469 14468 1
12120 14470 14469 1
12121 14471 14469 1
12122 14472 14469 1
12123 14473 14472 1
12124 14475 14474 1
12125 14476 14475 1
12126 14477 14475 1
12127 14478 14475 1
12128 14479 14478 1
12129 14481 14480 1
12130 14482 14481 1
12131 14483 14481 1
12132 14484 14481 1
12133 14485 14484 1
12134 14487 14486 1
12135 14488 14487 1
12136 14489 14487 1
12137 14490 14487 1
12138 14491 14490 1
12139 14493 14492 1
12140 14494 14493 1
12141 14495 14493 1
12142 14496 14493 1
12143 14497 14496 1
12144 14499 14498 1
12145 14500 14499 1
12146 14501 14499 1
12147 14502 14499 1
12148 14503 14502 1
12149 14505 14504 1
12150 14506 14505 1
12151 14507 14505 1
12152 14508 14505 1
12153 14509 14508 1
12154 14511 14510 1
12155 14512 14511 1
12156 14513 14511 1
12157 14514 14511 1
12158 14515 14514 1
12159 14517 14516 1
12160 14518 14517 1
12161 14519 14517 1
12162 14520 14517 1
12163 14521 14520 1
12164 14523 14522 1
12165 14524 14523 1
12166 14525 14523 1
12167 14526 14523 1
12168 14527 14526 1
12169 14529 14528 1
12170 14530 14529 1
12171 14531 14529 1
12172 14532 14529 1
12173 14533 14532 1
12174 14535 14534 1
12175 14536 14535 1
12176 14537 14535 1
12177 14538 14535 1
12178 14539 14538 1
12179 14541 14540 1
12180 14542 14541 1
12181 14543 14541 1
12182 14544 14541 1
12183 14545 14544 1
12184 14547 14546 1
12185 14548 14547 1
12186 14549 14547 1
12187 14550 14547 1
12188 14551 14550 1
12189 14553 14552 1
12190 14554 14553 1
12191 14555 14553 1
12192 14556 14553 1
12193 14557 14556 1
12194 14559 14558 1
12195 14560 14559 1
12196 14561 14559 1
12197 14562 14559 1
12198 14563 14562 1
12199 14565 14564 1
12200 14566 14565 1
12201 14567 14565 1
12202 14568 14565 1
12203 14569 14568 1
12204 14571 14570 1
12205 14572 14571 1
12206 14573 14571 1
12207 14574 14571 1
12208 14575 14574 1
12209 14577 14576 1
12210 14578 14577 1
12211 14579 14577 1
12212 14580 14577 1
12213 14581 14580 1
12214 14583 14582 1
12215 14584 14583 1
12216 14585 14583 1
12217 14586 14583 1
12218 14587 14586 1
12219 14589 14588 1
12220 14590 14589 1
12221 14591 14589 1
12222 14592 14589 1
12223 14593 14592 1
12224 14595 14594 1
12225 14596 14595 1
12226 14597 14595 1
12227 14598 14595 1
12228 14599 14598 1
12229 14601 14600 1
12230 14602 14601 1
12231 14603 14601 1
12232 14604 14601 1
12233 14605 14604 1
12234 14607 14606 1
12235 14608 14607 1
12236 14609 14607 1
12237 14610 14607 1
12238 14611 14610 1
12239 14613 14612 1
12240 14614 14613 1
12241 14615 14613 1
12242 14616 14613 1
12243 14617 14616 1
12244 14619 14618 1
12245 14620 14619 1
12246 14621 14619 1
12247 14622 14619 1
12248 14623 14622 1
12249 14625 14624 1
12250 14626 14625 1
12251 14627 14625 1
12252 14628 14625 1
12253 14629 14628 1
12254 14631 14630 1
12255 14632 14631 1
12256 14633 14631 1
12257 14634 14631 1
12258 14635 14634 1
12259 14637 14636 1
12260 14638 14637 1
12261 14639 14637 1
12262 14640 14637 1
12263 14641 14640 1
12264 14643 14642 1
12265 14644 14643 1
12266 14645 14643 1
12267 14646 14643 1
12268 14647 14646 1
12269 14649 14648 1
12270 14650 14649 1
12271 14651 14649 1
12272 14652 14649 1
12273 14653 14652 1
12274 14655 14654 1
12275 14656 14655 1
12276 14657 14655 1
12277 14658 14655 1
12278 14659 14658 1
12279 14661 14660 1
12280 14662 14661 1
12281 14663 14661 1
12282 14664 14661 1
12283 14665 14664 1
12284 14667 14666 1
12285 14668 14667 1
12286 14669 14667 1
12287 14670 14667 1
12288 14671 14670 1
12289 14673 14672 1
12290 14674 14673 1
12291 14675 14673 1
12292 14676 14673 1
12293 14677 14676 1
12294 14679 14678 1
12295 14680 14679 1
12296 14681 14679 1
12297 14682 14679 1
12298 14683 14682 1
12299 14685 14684 1
12300 14686 14685 1
12301 14687 14685 1
12302 14688 14685 1
12303 14689 14688 1
12304 14691 14690 1
12305 14692 14691 1
12306 14693 14691 1
12307 14694 14691 1
12308 14695 14694 1
12309 14697 14696 1
12310 14698 14697 1
12311 14699 14697 1
12312 14700 14697 1
12313 14701 14700 1
12314 14703 14702 1
12315 14704 14703 1
12316 14705 14703 1
12317 14706 14703 1
12318 14707 14706 1
12319 14709 14708 1
12320 14710 14709 1
12321 14711 14709 1
12322 14712 14709 1
12323 14713 14712 1
12324 14715 14714 1
12325 14716 14715 1
12326 14717 14715 1
12327 14718 14715 1
12328 14719 14718 1
12329 14721 14720 1
12330 14722 14721 1
12331 14723 14721 1
12332 14724 14721 1
12333 14725 14724 1
12334 14727 14726 1
12335 14728 14727 1
12336 14729 14727 1
12337 14730 14727 1
12338 14731 14730 1
12339 14733 14732 1
12340 14734 14733 1
12341 14735 14733 1
12342 14736 14733 1
12343 14737 14736 1
12344 14739 14738 1
12345 14740 14739 1
12346 14741 14739 1
12347 14742 14739 1
12348 14743 14742 1
12349 14745 14744 1
12350 14746 14745 1
12351 14747 14745 1
12352 14748 14745 1
12353 14749 14748 1
12354 14751 14750 1
12355 14752 14751 1
12356 14753 14751 1
12357 14754 14751 1
12358 14755 14754 1
12359 14757 14756 1
12360 14758 14757 1
12361 14759 14757 1
12362 14760 14757 1
12363 14761 14760 1
12364 14763 14762 1
12365 14764 14763 1
12366 14765 14763 1
12367 14766 14763 1
12368 14767 14766 1
12369 14769 14768 1
12370 14770 14769 1
12371 14771 14769 1
12372 14772 14769 1
12373 14773 14772 1
12374 14775 14774 1
12375 14776 14775 1
12376 14777 14775 1
12377 14778 14775 1
12378 14779 14778 1
12379 14781 14780 1
12380 14782 14781 1
12381 14783 14781 1
12382 14784 14781 1
12383 14785 14784 1
12384 14787 14786 1
12385 14788 14787 1
12386 14789 14787 1
12387 14790 14787 1
12388 14791 14790 1
12389 14793 14792 1
12390 14794 14793 1
12391 14795 14793 1
12392 14796 14793 1
12393 14797 14796 1
12394 14799 14798 1
12395 14800 14799 1
12396 14801 14799 1
12397 14802 14799 1
12398 14803 14802 1
12399 14805 14804 1
12400 14806 14805 1
12401 14807 14805 1
12402 14808 14805 1
12403 14809 14808 1
12404 14811 14810 1
12405 14812 14811 1
12406 14813 14811 1
12407 14814 14811 1
12408 14815 14814 1
12409 14817 14816 1
12410 14818 14817 1
12411 14819 14817 1
12412 14820 14817 1
12413 14821 14820 1
12414 14823 14822 1
12415 14824 14823 1
12416 14825 14823 1
12417 14826 14823 1
12418 14827 14826 1
12419 14829 14828 1
12420 14830 14829 1
12421 14831 14829 1
12422 14832 14829 1
12423 14833 14832 1
12424 14835 14834 1
12425 14836 14835 1
12426 14837 14835 1
12427 14838 14835 1
12428 14839 14838 1
12429 14841 14840 1
12430 14842 14841 1
12431 14843 14841 1
12432 14844 14841 1
12433 14845 14844 1
12434 14847 14846 1
12435 14848 14847 1
12436 14849 14847 1
12437 14850 14847 1
12438 14851 14850 1
12439 14853 14852 1
12440 14854 14853 1
12441 14855 14853 1
12442 14856 14853 1
12443 14857 14856 1
12444 14859 14858 1
12445 14860 14859 1
12446 14861 14859 1
12447 14862 14859 1
12448 14863 14862 1
12449 14865 14864 1
12450 14866 14865 1
12451 14867 14865 1
12452 14868 14865 1
12453 14869 14868 1
12454 14871 14870 1
12455 14872 14871 1
12456 14873 14871 1
12457 14874 14871 1
12458 14875 14874 1
12459 14877 14876 1
12460 14878 14877 1
12461 14879 14877 1
12462 14880 14877 1
12463 14881 14880 1
12464 14883 14882 1
12465 14884 14883 1
12466 14885 14883 1
12467 14886 14883 1
12468 14887 14886 1
12469 14889 14888 1
12470 14890 14889 1
12471 14891 14889 1
12472 14892 14889 1
12473 14893 14892 1
12474 14895 14894 1
12475 14896 14895 1
12476 14897 14895 1
12477 14898 14895 1
12478 14899 14898 1
12479 14901 14900 1
12480 14902 14901 1
12481 14903 14901 1
12482 14904 14901 1
12483 14905 14904 1
12484 14907 14906 1
12485 14908 14907 1
12486 14909 14907 1
12487 14910 14907 1
12488 14911 14910 1
12489 14913 14912 1
12490 14914 14913 1
12491 14915 14913 1
12492 14916 14913 1
12493 14917 14916 1
12494 14919 14918 1
12495 14920 14919 1
12496 14921 14919 1
12497 14922 14919 1
12498 14923 14922 1
12499 14925 14924 1
12500 14926 14925 1
12501 14927 14925 1
12502 14928 14925 1
12503 14929 14928 1
12504 14931 14930 1
12505 14932 14931 1
12506 14933 14931 1
12507 14934 14931 1
12508 14935 14934 1
12509 14937 14936 1
12510 14938 14937 1
12511 14939 14937 1
12512 14940 14937 1
12513 14941 14940 1
12514 14943 14942 1
12515 14944 14943 1
12516 14945 14943 1
12517 14946 14943 1
12518 14947 14946 1
12519 14949 14948 1
12520 14950 14949 1
12521 14951 14949 1
12522 14952 14949 1
12523 14953 14952 1
12524 14955 14954 1
12525 14956 14955 1
12526 14957 14955 1
12527 14958 14955 1
12528 14959 14958 1
12529 14961 14960 1
12530 14962 14961 1
12531 14963 14961 1
12532 14964 14961 1
12533 14965 14964 1
12534 14967 14966 1
12535 14968 14967 1
12536 14969 14967 1
12537 14970 14967 1
12538 14971 14970 1
12539 14973 14972 1
12540 14974 14973 1
12541 14975 14973 1
12542 14976 14973 1
12543 14977 14976 1
12544 14979 14978 1
12545 14980 14979 1
12546 14981 14979 1
12547 14982 14979 1
12548 14983 14982 1
12549 14985 14984 1
12550 14986 14985 1
12551 14987 14985 1
12552 14988 14985 1
12553 14989 14988 1
12554 14991 14990 1
12555 14992 14991 1
12556 14993 14991 1
12557 14994 14991 1
12558 14995 14994 1
12559 14997 14996 1
12560 14998 14997 1
12561 14999 14997 1
12562 15000 14997 1
12563 15001 15000 1
12564 15003 15002 1
12565 15004 15003 1
12566 15005 15003 1
12567 15006 15003 1
12568 15007 15006 1
12569 15009 15008 1
12570 15010 15009 1
12571 15011 15009 1
12572 15012 15009 1
12573 15013 15012 1
12574 15015 15014 1
12575 15016 15015 1
12576 15017 15015 1
12577 15018 15015 1
12578 15019 15018 1
12579 15021 15020 1
12580 15022 15021 1
12581 15023 15021 1
12582 15024 15021 1
12583 15025 15024 1
12584 15027 15026 1
12585 15028 15027 1
12586 15029 15027 1
12587 15030 15027 1
12588 15031 15030 1
12589 15033 15032 1
12590 15034 15033 1
12591 15035 15033 1
12592 15036 15033 1
12593 15037 15036 1
12594 15039 15038 1
12595 15040 15039 1
12596 15041 15039 1
12597 15042 15039 1
12598 15043 15042 1
12599 15045 15044 1
12600 15046 15045 1
12601 15047 15045 1
12602 15048 15045 1
12603 15049 15048 1
12604 15051 15050 1
12605 15052 15051 1
12606 15053 15051 1
12607 15054 15051 1
12608 15055 15054 1
12609 15057 15056 1
12610 15058 15057 1
12611 15059 15057 1
12612 15060 15057 1
12613 15061 15060 1
12614 15063 15062 1
12615 15064 15063 1
12616 15065 15063 1
12617 15066 15063 1
12618 15067 15066 1
12619 15069 15068 1
12620 15070 15069 1
12621 15071 15069 1
12622 15072 15069 1
12623 15073 15072 1
12624 15075 15074 1
12625 15076 15075 1
12626 15077 15075 1
12627 15078 15075 1
12628 15079 15078 1
12629 15081 15080 1
12630 15082 15081 1
12631 15083 15081 1
12632 15084 15081 1
12633 15085 15084 1
12634 15087 15086 1
12635 15088 15087 1
12636 15089 15087 1
12637 15090 15087 1
12638 15091 15090 1
12639 15093 15092 1
12640 15094 15093 1
12641 15095 15093 1
12642 15096 15093 1
12643 15097 15096 1
12644 15099 15098 1
12645 15100 15099 1
12646 15101 15099 1
12647 15102 15099 1
12648 15103 15102 1
12649 15105 15104 1
12650 15106 15105 1
12651 15107 15105 1
12652 15108 15105 1
12653 15109 15108 1
12654 15111 15110 1
12655 15112 15111 1
12656 15113 15111 1
12657 15114 15111 1
12658 15115 15114 1
12659 15117 15116 1
12660 15118 15117 1
12661 15119 15117 1
12662 15120 15117 1
12663 15121 15120 1
12664 15123 15122 1
12665 15124 15123 1
12666 15125 15123 1
12667 15126 15123 1
12668 15127 15126 1
12669 15129 15128 1
12670 15130 15129 1
12671 15131 15129 1
12672 15132 15129 1
12673 15133 15132 1
12674 15135 15134 1
12675 15136 15135 1
12676 15137 15135 1
12677 15138 15135 1
12678 15139 15138 1
12679 15141 15140 1
12680 15142 15141 1
12681 15143 15141 1
12682 15144 15141 1
12683 15145 15144 1
12684 15147 15146 1
12685 15148 15147 1
12686 15149 15147 1
12687 15150 15147 1
12688 15151 15150 1
12689 15153 15152 1
12690 15154 15153 1
12691 15155 15153 1
12692 15156 15153 1
12693 15157 15156 1
12694 15159 15158 1
12695 15160 15159 1
12696 15161 15159 1
12697 15162 15159 1
12698 15163 15162 1
12699 15165 15164 1
12700 15166 15165 1
12701 15167 15165 1
12702 15168 15165 1
12703 15169 15168 1
12704 15171 15170 1
12705 15172 15171 1
12706 15173 15171 1
12707 15174 15171 1
12708 15175 15174 1
12709 15177 15176 1
12710 15178 15177 1
12711 15179 15177 1
12712 15180 15177 1
12713 15181 15180 1
12714 15183 15182 1
12715 15184 15183 1
12716 15185 15183 1
12717 15186 15183 1
12718 15187 15186 1
12719 15189 15188 1
12720 15190 15189 1
12721 15191 15189 1
12722 15192 15189 1
12723 15193 15192 1
12724 15195 15194 1
12725 15196 15195 1
12726 15197 15195 1
12727 15198 15195 1
12728 15199 15198 1
12729 15201 15200 1
12730 15202 15201 1
12731 15203 15201 1
12732 15204 15201 1
12733 15205 15204 1
12734 15207 15206 1
12735 15208 15207 1
12736 15209 15207 1
12737 15210 15207 1
12738 15211 15210 1
12739 15213 15212 1
12740 15214 15213 1
12741 15215 15213 1
12742 15216 15213 1
12743 15217 15216 1
12744 15219 15218 1
12745 15220 15219 1
12746 15221 15219 1
12747 15222 15219 1
12748 15223 15222 1
12749 15225 15224 1
12750 15226 15225 1
12751 15227 15225 1
12752 15228 15225 1
12753 15229 15228 1
12754 15231 15230 1
12755 15232 15231 1
12756 15233 15231 1
12757 15234 15231 1
12758 15235 15234 1
12759 15237 15236 1
12760 15238 15237 1
12761 15239 15237 1
12762 15240 15237 1
12763 15241 15240 1
12764 15243 15242 1
12765 15244 15243 1
12766 15245 15243 1
12767 15246 15243 1
12768 15247 15246 1
12769 15249 15248 1
12770 15250 15249 1
12771 15251 15249 1
12772 15252 15249 1
12773 15253 15252 1
12774 15255 15254 1
12775 15256 15255 1
12776 15257 15255 1
12777 15258 15255 1
12778 15259 15258 1
12779 15261 15260 1
12780 15262 15261 1
12781 15263 15261 1
12782 15264 15261 1
12783 15265 15264 1
12784 15267 15266 1
12785 15268 15267 1
12786 15269 15267 1
12787 15270 15267 1
12788 15271 15270 1
12789 15273 15272 1
12790 15274 15273 1
12791 15275 15273 1
12792 15276 15273 1
12793 15277 15276 1
12794 15279 15278 1
12795 15280 15279 1
12796 15281 15279 1
12797 15282 15279 1
12798 15283 15282 1
12799 15285 15284 1
12800 15286 15285 1
12801 15287 15285 1
12802 15288 15285 1
12803 15289 15288 1
12804 15291 15290 1
12805 15292 15291 1
12806 15293 15291 1
12807 15294 15291 1
12808 15295 15294 1
12809 15297 15296 1
12810 15298 15297 1
12811 15299 15297 1
12812 15300 15297 1
12813 15301 15300 1
12814 15303 15302 1
12815 15304 15303 1
12816 15305 15303 1
12817 15306 15303 1
12818 15307 15306 1
12819 15309 15308 1
12820 15310 15309 1
12821 15311 15309 1
12822 15312 15309 1
12823 15313 15312 1
12824 15315 15314 1
12825 15316 15315 1
12826 15317 15315 1
12827 15318 15315 1
12828 15319 15318 1
12829 15321 15320 1
12830 15322 15321 1
12831 15323 15321 1
12832 15324 15321 1
12833 15325 15324 1
12834 15327 15326 1
12835 15328 15327 1
12836 15329 15327 1
12837 15330 15327 1
12838 15331 15330 1
12839 15333 15332 1
12840 15334 15333 1
12841 15335 15333 1
12842 15336 15333 1
12843 15337 15336 1
12844 15339 15338 1
12845 15340 15339 1
12846 15341 15339 1
12847 15342 15339 1
12848 15343 15342 1
12849 15345 15344 1
12850 15346 15345 1
12851 15347 15345 1
12852 15348 15345 1
12853 15349 15348 1
12854 15351 15350 1
12855 15352 15351 1
12856 15353 15351 1
12857 15354 15351 1
12858 15355 15354 1
12859 15357 15356 1
12860 15358 15357 1
12861 15359 15357 1
12862 15360 15357 1
12863 15361 15360 1
12864 15363 15362 1
12865 15364 15363 1
12866 15365 15363 1
12867 15366 15363 1
12868 15367 15366 1
12869 15369 15368 1
12870 15370 15369 1
12871 15371 15369 1
12872 15372 15369 1
12873 15373 15372 1
12874 15375 15374 1
12875 15376 15375 1
12876 15377 15375 1
12877 15378 15375 1
12878 15379 15378 1
12879 15381 15380 1
12880 15382 15381 1
12881 15383 15381 1
12882 15384 15381 1
12883 15385 15384 1
12884 15387 15386 1
12885 15388 15387 1
12886 15389 15387 1
12887 15390 15387 1
12888 15391 15390 1
12889 15393 15392 1
12890 15394 15393 1
12891 15395 15393 1
12892 15396 15393 1
12893 15397 15396 1
12894 15399 15398 1
12895 15400 15399 1
12896 15401 15399 1
12897 15402 15399 1
12898 15403 15402 1
12899 15405 15404 1
12900 15406 15405 1
12901 15407 15405 1
12902 15408 15405 1
12903 15409 15408 1
12904 15411 15410 1
12905 15412 15411 1
12906 15413 15411 1
12907 15414 15411 1
12908 15415 15414 1
12909 15417 15416 1
12910 15418 15417 1
12911 15419 15417 1
12912 15420 15417 1
12913 15421 15420 1
12914 15423 15422 1
12915 15424 15423 1
12916 15425 15423 1
12917 15426 15423 1
12918 15427 15426 1
12919 15429 15428 1
12920 15430 15429 1
12921 15431 15429 1
12922 15432 15429 1
12923 15433 15432 1
12924 15435 15434 1
12925 15436 15435 1
12926 15437 15435 1
12927 15438 15435 1
12928 15439 15438 1
12929 15441 15440 1
12930 15442 15441 1
12931 15443 15441 1
12932 15444 15441 1
12933 15445 15444 1
12934 15447 15446 1
12935 15448 15447 1
12936 15449 15447 1
12937 15450 15447 1
12938 15451 15450 1
12939 15453 15452 1
12940 15454 15453 1
12941 15455 15453 1
12942 15456 15453 1
12943 15457 15456 1
12944 15459 15458 1
12945 15460 15459 1
12946 15461 15459 1
12947 15462 15459 1
12948 15463 15462 1
12949 15465 15464 1
12950 15466 15465 1
12951 15467 15465 1
12952 15468 15465 1
12953 15469 15468 1
12954 15471 15470 1
12955 15472 15471 1
12956 15473 15471 1
12957 15474 15471 1
12958 15475 15474 1
12959 15477 15476 1
12960 15478 15477 1
12961 15479 15477 1
12962 15480 15477 1
12963 15481 15480 1
12964 15483 15482 1
12965 15484 15483 1
12966 15485 15483 1
12967 15486 15483 1
12968 15487 15486 1
12969 15489 15488 1
12970 15490 15489 1
12971 15491 15489 1
12972 15492 15489 1
12973 15493 15492 1
12974 15495 15494 1
12975 15496 15495 1
12976 15497 15495 1
12977 15498 15495 1
12978 15499 15498 1
12979 15501 15500 1
12980 15502 15501 1
12981 15503 15501 1
12982 15504 15501 1
12983 15505 15504 1
12984 15507 15506 1
12985 15508 15507 1
12986 15509 15507 1
12987 15510 15507 1
12988 15511 15510 1
12989 15513 15512 1
12990 15514 15513 1
12991 15515 15513 1
12992 15516 15513 1
12993 15517 15516 1
12994 15519 15518 1
12995 15520 15519 1
12996 15521 15519 1
12997 15522 15519 1
12998 15523 15522 1
12999 15525 15524 1
13000 15526 15525 1
13001 15527 15525 1
13002 15528 15525 1
13003 15529 15528 1
13004 15531 15530 1
13005 15532 15531 1
13006 15533 15531 1
13007 15534 15531 1
13008 15535 15534 1
13009 15537 15536 1
13010 15538 15537 1
13011 15539 15537 1
13012 15540 15537 1
13013 15541 15540 1
13014 15543 15542 1
13015 15544 15543 1
13016 15545 15543 1
13017 15546 15543 1
13018 15547 15546 1
13019 15549 15548 1
13020 15550 15549 1
13021 15551 15549 1
13022 15552 15549 1
13023 15553 15552 1
13024 15555 15554 1
13025 15556 15555 1
13026 15557 15555 1
13027 15558 15555 1
13028 15559 15558 1
13029 15561 15560 1
13030 15562 15561 1
13031 15563 15561 1
13032 15564 15561 1
13033 15565 15564 1
13034 15567 15566 1
13035 15568 15567 1
13036 15569 15567 1
13037 15570 15567 1
13038 15571 15570 1
13039 15573 15572 1
13040 15574 15573 1
13041 15575 15573 1
13042 15576 15573 1
13043 15577 15576 1
13044 15579 15578 1
13045 15580 15579 1
13046 15581 15579 1
13047 15582 15579 1
13048 15583 15582 1
13049 15585 15584 1
13050 15586 15585 1
13051 15587 15585 1
13052 15588 15585 1
13053 15589 15588 1
13054 15591 15590 1
13055 15592 15591 1
13056 15593 15591 1
13057 15594 15591 1
13058 15595 15594 1
13059 15597 15596 1
13060 15598 15597 1
13061 15599 15597 1
13062 15600 15597 1
13063 15601 15600 1
13064 15603 15602 1
13065 15604 15603 1
13066 15605 15603 1
13067 15606 15603 1
13068 15607 15606 1
13069 15609 15608 1
13070 15610 15609 1
13071 15611 15609 1
13072 15612 15609 1
13073 15613 15612 1
13074 15615 15614 1
13075 15616 15615 1
13076 15617 15615 1
13077 15618 15615 1
13078 15619 15618 1
13079 15621 15620 1
13080 15622 15621 1
13081 15623 15621 1
13082 15624 15621 1
13083 15625 15624 1
13084 15627 15626 1
13085 15628 15627 1
13086 15629 15627 1
13087 15630 15627 1
13088 15631 15630 1
13089 15633 15632 1
13090 15634 15633 1
13091 15635 15633 1
13092 15636 15633 1
13093 15637 15636 1
13094 15639 15638 1
13095 15640 15639 1
13096 15641 15639 1
13097 15642 15639 1
13098 15643 15642 1
13099 15645 15644 1
13100 15646 15645 1
13101 15647 15645 1
13102 15648 15645 1
13103 15649 15648 1
13104 15651 15650 1
13105 15652 15651 1
13106 15653 15651 1
13107 15654 15651 1
13108 15655 15654 1
13109 15657 15656 1
13110 15658 15657 1
13111 15659 15657 1
13112 15660 15657 1
13113 15661 15660 1
13114 15663 15662 1
13115 15664 15663 1
13116 15665 15663 1
13117 15666 15663 1
13118 15667 15666 1
13119 15669 15668 1
13120 15670 15669 1
13121 15671 15669 1
13122 15672 15669 1
13123 15673 15672 1
13124 15675 15674 1
13125 15676 15675 1
13126 15677 15675 1
13127 15678 15675 1
13128 15679 15678 1
13129 15681 15680 1
13130 15682 15681 1
13131 15683 15681 1
13132 15684 15681 1
13133 15685 15684 1
13134 15687 15686 1
13135 15688 15687 1
13136 15689 15687 1
13137 15690 15687 1
13138 15691 15690 1
13139 15693 15692 1
13140 15694 15693 1
13141 15695 15693 1
13142 15696 15693 1
13143 15697 15696 1
13144 15699 15698 1
13145 15700 15699 1
13146 15701 15699 1
13147 15702 15699 1
13148 15703 15702 1
13149 15705 15704 1
13150 15706 15705 1
13151 15707 15705 1
13152 15708 15705 1
13153 15709 15708 1
13154 15711 15710 1
13155 15712 15711 1
13156 15713 15711 1
13157 15714 15711 1
13158 15715 15714 1
13159 15717 15716 1
13160 15718 15717 1
13161 15719 15717 1
13162 15720 15717 1
13163 15721 15720 1
13164 15723 15722 1
13165 15724 15723 1
13166 15725 15723 1
13167 15726 15723 1
13168 15727 15726 1
13169 15729 15728 1
13170 15730 15729 1
13171 15731 15729 1
13172 15732 15729 1
13173 15733 15732 1
13174 15735 15734 1
13175 15736 15735 1
13176 15737 15735 1
13177 15738 15735 1
13178 15739 15738 1
13179 15741 15740 1
13180 15742 15741 1
13181 15743 15741 1
13182 15744 15741 1
13183 15745 15744 1
13184 15747 15746 1
13185 15748 15747 1
13186 15749 15747 1
13187 15750 15747 1
13188 15751 15750 1
13189 15753 15752 1
13190 15754 15753 1
13191 15755 15753 1
13192 15756 15753 1
13193 15757 15756 1
13194 15759 15758 1
13195 15760 15759 1
13196 15761 15759 1
13197 15762 15759 1
13198 15763 15762 1
13199 15765 15764 1
13200 15766 15765 1
13201 15767 15765 1
13202 15768 15765 1
13203 15769 15768 1
13204 15771 15770 1
13205 15772 15771 1
13206 15773 15771 1
13207 15774 15771 1
13208 15775 15774 1
13209 15777 15776 1
13210 15778 15777 1
13211 15779 15777 1
13212 15780 15777 1
13213 15781 15780 1
13214 15783 15782 1
13215 15784 15783 1
13216 15785 15783 1
13217 15786 15783 1
13218 15787 15786 1
13219 15789 15788 1
13220 15790 15789 1
13221 15791 15789 1
13222 15792 15789 1
13223 15793 15792 1
13224 15795 15794 1
13225 15796 15795 1
13226 15797 15795 1
13227 15798 15795 1
13228 15799 15798 1
13229 15801 15800 1
13230 15802 15801 1
13231 15803 15801 1
13232 15804 15801 1
13233 15805 15804 1
13234 15807 15806 1
13235 15808 15807 1
13236 15809 15807 1
13237 15810 15807 1
13238 15811 15810 1
13239 15813 15812 1
13240 15814 15813 1
13241 15815 15813 1
13242 15816 15813 1
13243 15817 15816 1
13244 15819 15818 1
13245 15820 15819 1
13246 15821 15819 1
13247 15822 15819 1
13248 15823 15822 1
13249 15825 15824 1
13250 15826 15825 1
13251 15827 15825 1
13252 15828 15825 1
13253 15829 15828 1
13254 15831 15830 1
13255 15832 15831 1
13256 15833 15831 1
13257 15834 15831 1
13258 15835 15834 1
13259 15837 15836 1
13260 15838 15837 1
13261 15839 15837 1
13262 15840 15837 1
13263 15841 15840 1
13264 15843 15842 1
13265 15844 15843 1
13266 15845 15843 1
13267 15846 15843 1
13268 15847 15846 1
13269 15849 15848 1
13270 15850 15849 1
13271 15851 15849 1
13272 15852 15849 1
13273 15853 15852 1
13274 15855 15854 1
13275 15856 15855 1
13276 15857 15855 1
13277 15858 15855 1
13278 15859 15858 1
13279 15861 15860 1
13280 15862 15861 1
13281 15863 15861 1
13282 15864 15861 1
13283 15865 15864 1
13284 15867 15866 1
13285 15868 15867 1
13286 15869 15867 1
13287 15870 15867 1
13288 15871 15870 1
13289 15873 15872 1
13290 15874 15873 1
13291 15875 15873 1
13292 15876 15873 1
13293 15877 15876 1
13294 15879 15878 1
13295 15880 15879 1
13296 15881 15879 1
13297 15882 15879 1
13298 15883 15882 1
13299 15885 15884 1
13300 15886 15885 1
13301 15887 15885 1
13302 15888 15885 1
13303 15889 15888 1
13304 15891 15890 1
13305 15892 15891 1
13306 15893 15891 1
13307 15894 15891 1
13308 15895 15894 1
13309 15897 15896 1
13310 15898 15897 1
13311 15899 15897 1
13312 15900 15897 1
13313 15901 15900 1
13314 15903 15902 1
13315 15904 15903 1
13316 15905 15903 1
13317 15906 15903 1
13318 15907 15906 1
13319 15909 15908 1
13320 15910 15909 1
13321 15911 15909 1
13322 15912 15909 1
13323 15913 15912 1
13324 15915 15914 1
13325 15916 15915 1
13326 15917 15915 1
13327 15918 15915 1
13328 15919 15918 1
13329 15921 15920 1
13330 15922 15921 1
13331 15923 15921 1
13332 15924 15921 1
13333 15925 15924 1
13334 15927 15926 1
13335 15928 15927 1
13336 15929 15927 1
13337 15930 15927 1
13338 15931 15930 1
@<TRIPOS>SUBSTRUCTURE
      1  XAP              1 ****               0 ****  **** 
      2 rAPO             14 ****               0 ****  **** 
      3 rPOO             65 ****               0 ****  **** 
      4 rOOO            113 ****               0 ****  **** 
      5 rOOP            161 ****               0 ****  **** 
      6 rOPO            209 ****               0 ****  **** 
      7 rPOO            260 ****               0 ****  **** 
      8 rOOT            308 ****               0 ****  **** 
      9 rOTX            353 ****               0 ****  **** 
     10  DNI            371 ****               0 ****  **** 
     11  Cl-            378 ****               0 ****  **** 
     12  Cl-            379 ****               0 ****  **** 
     13  MOH            380 ****               0 ****  **** 
     14  MOH            386 ****               0 ****  **** 
     15  MOH            392 ****               0 ****  **** 
     16  MOH            398 ****               0 ****  **** 
     17  MOH            404 ****               0 ****  **** 
     18  MOH            410 ****               0 ****  **** 
     19  MOH            416 ****               0 ****  **** 
     20  MOH            422 ****               0 ****  **** 
     21  MOH            428 ****               0 ****  **** 
     22  MOH            434 ****               0 ****  **** 
     23  MOH            440 ****               0 ****  **** 
     24  MOH            446 ****               0 ****  **** 
     25  MOH            452 ****               0 ****  **** 
     26  MOH            458 ****               0 ****  **** 
     27  MOH            464 ****               0 ****  **** 
     28  MOH            470 ****               0 ****  **** 
     29  MOH            476 ****               0 ****  **** 
     30  MOH            482 ****               0 ****  **** 
     31  MOH            488 ****               0 ****  **** 
     32  MOH            494 ****               0 ****  **** 
     33  MOH            500 ****               0 ****  **** 
     34  MOH            506 ****               0 ****  **** 
     35  MOH            512 ****               0 ****  **** 
     36  MOH            518 ****               0 ****  **** 
     37  MOH            524 ****               0 ****  **** 
     38  MOH            530 ****               0 ****  **** 
     39  MOH            536 ****               0 ****  **** 
     40  MOH            542 ****               0 ****  **** 
     41  MOH            548 ****               0 ****  **** 
     42  MOH            554 ****               0 ****  **** 
     43  MOH            560 ****               0 ****  **** 
     44  MOH            566 ****               0 ****  **** 
     45  MOH            572 ****               0 ****  **** 
     46  MOH            578 ****               0 ****  **** 
     47  MOH            584 ****               0 ****  **** 
     48  MOH            590 ****               0 ****  **** 
     49  MOH            596 ****               0 ****  **** 
     50  MOH            602 ****               0 ****  **** 
     51  MOH            608 ****               0 ****  **** 
     52  MOH            614 ****               0 ****  **** 
     53  MOH            620 ****               0 ****  **** 
     54  MOH            626 ****               0 ****  **** 
     55  MOH            632 ****               0 ****  **** 
     56  MOH            638 ****               0 ****  **** 
     57  MOH            644 ****               0 ****  **** 
     58  MOH            650 ****               0 ****  **** 
     59  MOH            656 ****               0 ****  **** 
     60  MOH            662 ****               0 ****  **** 
     61  MOH            668 ****               0 ****  **** 
     62  MOH            674 ****               0 ****  **** 
     63  MOH            680 ****               0 ****  **** 
     64  MOH            686 ****               0 ****  **** 
     65  MOH            692 ****               0 ****  **** 
     66  MOH            698 ****               0 ****  **** 
     67  MOH            704 ****               0 ****  **** 
     68  MOH            710 ****               0 ****  **** 
     69  MOH            716 ****               0 ****  **** 
     70  MOH            722 ****               0 ****  **** 
     71  MOH            728 ****               0 ****  **** 
     72  MOH            734 ****               0 ****  **** 
     73  MOH            740 ****               0 ****  **** 
     74  MOH            746 ****               0 ****  **** 
     75  MOH            752 ****               0 ****  **** 
     76  MOH            758 ****               0 ****  **** 
     77  MOH            764 ****               0 ****  **** 
     78  MOH            770 ****               0 ****  **** 
     79  MOH            776 ****               0 ****  **** 
     80  MOH            782 ****               0 ****  **** 
     81  MOH            788 ****               0 ****  **** 
     82  MOH            794 ****               0 ****  **** 
     83  MOH            800 ****               0 ****  **** 
     84  MOH            806 ****               0 ****  **** 
     85  MOH            812 ****               0 ****  **** 
     86  MOH            818 ****               0 ****  **** 
     87  MOH            824 ****               0 ****  **** 
     88  MOH            830 ****               0 ****  **** 
     89  MOH            836 ****               0 ****  **** 
     90  MOH            842 ****               0 ****  **** 
     91  MOH            848 ****               0 ****  **** 
     92  MOH            854 ****               0 ****  **** 
     93  MOH            860 ****               0 ****  **** 
     94  MOH            866 ****               0 ****  **** 
     95  MOH            872 ****               0 ****  **** 
     96  MOH            878 ****               0 ****  **** 
     97  MOH            884 ****               0 ****  **** 
     98  MOH            890 ****               0 ****  **** 
     99  MOH            896 ****               0 ****  **** 
    100  MOH            902 ****               0 ****  **** 
    101  MOH            908 ****               0 ****  **** 
    102  MOH            914 ****               0 ****  **** 
    103  MOH            920 ****               0 ****  **** 
    104  MOH            926 ****               0 ****  **** 
    105  MOH            932 ****               0 ****  **** 
    106  MOH            938 ****               0 ****  **** 
    107  MOH            944 ****               0 ****  **** 
    108  MOH            950 ****               0 ****  **** 
    109  MOH            956 ****               0 ****  **** 
    110  MOH            962 ****               0 ****  **** 
    111  MOH            968 ****               0 ****  **** 
    112  MOH            974 ****               0 ****  **** 
    113  MOH            980 ****               0 ****  **** 
    114  MOH            986 ****               0 ****  **** 
    115  MOH            992 ****               0 ****  **** 
    116  MOH            998 ****               0 ****  **** 
    117  MOH           1004 ****               0 ****  **** 
    118  MOH           1010 ****               0 ****  **** 
    119  MOH           1016 ****               0 ****  **** 
    120  MOH           1022 ****               0 ****  **** 
    121  MOH           1028 ****               0 ****  **** 
    122  MOH           1034 ****               0 ****  **** 
    123  MOH           1040 ****               0 ****  **** 
    124  MOH           1046 ****               0 ****  **** 
    125  MOH           1052 ****               0 ****  **** 
    126  MOH           1058 ****               0 ****  **** 
    127  MOH           1064 ****               0 ****  **** 
    128  MOH           1070 ****               0 ****  **** 
    129  MOH           1076 ****               0 ****  **** 
    130  MOH           1082 ****               0 ****  **** 
    131  MOH           1088 ****               0 ****  **** 
    132  MOH           1094 ****               0 ****  **** 
    133  MOH           1100 ****               0 ****  **** 
    134  MOH           1106 ****               0 ****  **** 
    135  MOH           1112 ****               0 ****  **** 
    136  MOH           1118 ****               0 ****  **** 
    137  MOH           1124 ****               0 ****  **** 
    138  MOH           1130 ****               0 ****  **** 
    139  MOH           1136 ****               0 ****  **** 
    140  MOH           1142 ****               0 ****  **** 
    141  MOH           1148 ****               0 ****  **** 
    142  MOH           1154 ****               0 ****  **** 
    143  MOH           1160 ****               0 ****  **** 
    144  MOH           1166 ****               0 ****  **** 
    145  MOH           1172 ****               0 ****  **** 
    146  MOH           1178 ****               0 ****  **** 
    147  MOH           1184 ****               0 ****  **** 
    148  MOH           1190 ****               0 ****  **** 
    149  MOH           1196 ****               0 ****  **** 
    150  MOH           1202 ****               0 ****  **** 
    151  MOH           1208 ****               0 ****  **** 
    152  MOH           1214 ****               0 ****  **** 
    153  MOH           1220 ****               0 ****  **** 
    154  MOH           1226 ****               0 ****  **** 
    155  MOH           1232 ****               0 ****  **** 
    156  MOH           1238 ****               0 ****  **** 
    157  MOH           1244 ****               0 ****  **** 
    158  MOH           1250 ****               0 ****  **** 
    159  MOH           1256 ****               0 ****  **** 
    160  MOH           1262 ****               0 ****  **** 
    161  MOH           1268 ****               0 ****  **** 
    162  MOH           1274 ****               0 ****  **** 
    163  MOH           1280 ****               0 ****  **** 
    164  MOH           1286 ****               0 ****  **** 
    165  MOH           1292 ****               0 ****  **** 
    166  MOH           1298 ****               0 ****  **** 
    167  MOH           1304 ****               0 ****  **** 
    168  MOH           1310 ****               0 ****  **** 
    169  MOH           1316 ****               0 ****  **** 
    170  MOH           1322 ****               0 ****  **** 
    171  MOH           1328 ****               0 ****  **** 
    172  MOH           1334 ****               0 ****  **** 
    173  MOH           1340 ****               0 ****  **** 
    174  MOH           1346 ****               0 ****  **** 
    175  MOH           1352 ****               0 ****  **** 
    176  MOH           1358 ****               0 ****  **** 
    177  MOH           1364 ****               0 ****  **** 
    178  MOH           1370 ****               0 ****  **** 
    179  MOH           1376 ****               0 ****  **** 
    180  MOH           1382 ****               0 ****  **** 
    181  MOH           1388 ****               0 ****  **** 
    182  MOH           1394 ****               0 ****  **** 
    183  MOH           1400 ****               0 ****  **** 
    184  MOH           1406 ****               0 ****  **** 
    185  MOH           1412 ****               0 ****  **** 
    186  MOH           1418 ****               0 ****  **** 
    187  MOH           1424 ****               0 ****  **** 
    188  MOH           1430 ****               0 ****  **** 
    189  MOH           1436 ****               0 ****  **** 
    190  MOH           1442 ****               0 ****  **** 
    191  MOH           1448 ****               0 ****  **** 
    192  MOH           1454 ****               0 ****  **** 
    193  MOH           1460 ****               0 ****  **** 
    194  MOH           1466 ****               0 ****  **** 
    195  MOH           1472 ****               0 ****  **** 
    196  MOH           1478 ****               0 ****  **** 
    197  MOH           1484 ****               0 ****  **** 
    198  MOH           1490 ****               0 ****  **** 
    199  MOH           1496 ****               0 ****  **** 
    200  MOH           1502 ****               0 ****  **** 
    201  MOH           1508 ****               0 ****  **** 
    202  MOH           1514 ****               0 ****  **** 
    203  MOH           1520 ****               0 ****  **** 
    204  MOH           1526 ****               0 ****  **** 
    205  MOH           1532 ****               0 ****  **** 
    206  MOH           1538 ****               0 ****  **** 
    207  MOH           1544 ****               0 ****  **** 
    208  MOH           1550 ****               0 ****  **** 
    209  MOH           1556 ****               0 ****  **** 
    210  MOH           1562 ****               0 ****  **** 
    211  MOH           1568 ****               0 ****  **** 
    212  MOH           1574 ****               0 ****  **** 
    213  MOH           1580 ****               0 ****  **** 
    214  MOH           1586 ****               0 ****  **** 
    215  MOH           1592 ****               0 ****  **** 
    216  MOH           1598 ****               0 ****  **** 
    217  MOH           1604 ****               0 ****  **** 
    218  MOH           1610 ****               0 ****  **** 
    219  MOH           1616 ****               0 ****  **** 
    220  MOH           1622 ****               0 ****  **** 
    221  MOH           1628 ****               0 ****  **** 
    222  MOH           1634 ****               0 ****  **** 
    223  MOH           1640 ****               0 ****  **** 
    224  MOH           1646 ****               0 ****  **** 
    225  MOH           1652 ****               0 ****  **** 
    226  MOH           1658 ****               0 ****  **** 
    227  MOH           1664 ****               0 ****  **** 
    228  MOH           1670 ****               0 ****  **** 
    229  MOH           1676 ****               0 ****  **** 
    230  MOH           1682 ****               0 ****  **** 
    231  MOH           1688 ****               0 ****  **** 
    232  MOH           1694 ****               0 ****  **** 
    233  MOH           1700 ****               0 ****  **** 
    234  MOH           1706 ****               0 ****  **** 
    235  MOH           1712 ****               0 ****  **** 
    236  MOH           1718 ****               0 ****  **** 
    237  MOH           1724 ****               0 ****  **** 
    238  MOH           1730 ****               0 ****  **** 
    239  MOH           1736 ****               0 ****  **** 
    240  MOH           1742 ****               0 ****  **** 
    241  MOH           1748 ****               0 ****  **** 
    242  MOH           1754 ****               0 ****  **** 
    243  MOH           1760 ****               0 ****  **** 
    244  MOH           1766 ****               0 ****  **** 
    245  MOH           1772 ****               0 ****  **** 
    246  MOH           1778 ****               0 ****  **** 
    247  MOH           1784 ****               0 ****  **** 
    248  MOH           1790 ****               0 ****  **** 
    249  MOH           1796 ****               0 ****  **** 
    250  MOH           1802 ****               0 ****  **** 
    251  MOH           1808 ****               0 ****  **** 
    252  MOH           1814 ****               0 ****  **** 
    253  MOH           1820 ****               0 ****  **** 
    254  MOH           1826 ****               0 ****  **** 
    255  MOH           1832 ****               0 ****  **** 
    256  MOH           1838 ****               0 ****  **** 
    257  MOH           1844 ****               0 ****  **** 
    258  MOH           1850 ****               0 ****  **** 
    259  MOH           1856 ****               0 ****  **** 
    260  MOH           1862 ****               0 ****  **** 
    261  MOH           1868 ****               0 ****  **** 
    262  MOH           1874 ****               0 ****  **** 
    263  MOH           1880 ****               0 ****  **** 
    264  MOH           1886 ****               0 ****  **** 
    265  MOH           1892 ****               0 ****  **** 
    266  MOH           1898 ****               0 ****  **** 
    267  MOH           1904 ****               0 ****  **** 
    268  MOH           1910 ****               0 ****  **** 
    269  MOH           1916 ****               0 ****  **** 
    270  MOH           1922 ****               0 ****  **** 
    271  MOH           1928 ****               0 ****  **** 
    272  MOH           1934 ****               0 ****  **** 
    273  MOH           1940 ****               0 ****  **** 
    274  MOH           1946 ****               0 ****  **** 
    275  MOH           1952 ****               0 ****  **** 
    276  MOH           1958 ****               0 ****  **** 
    277  MOH           1964 ****               0 ****  **** 
    278  MOH           1970 ****               0 ****  **** 
    279  MOH           1976 ****               0 ****  **** 
    280  MOH           1982 ****               0 ****  **** 
    281  MOH           1988 ****               0 ****  **** 
    282  MOH           1994 ****               0 ****  **** 
    283  MOH           2000 ****               0 ****  **** 
    284  MOH           2006 ****               0 ****  **** 
    285  MOH           2012 ****               0 ****  **** 
    286  MOH           2018 ****               0 ****  **** 
    287  MOH           2024 ****               0 ****  **** 
    288  MOH           2030 ****               0 ****  **** 
    289  MOH           2036 ****               0 ****  **** 
    290  MOH           2042 ****               0 ****  **** 
    291  MOH           2048 ****               0 ****  **** 
    292  MOH           2054 ****               0 ****  **** 
    293  MOH           2060 ****               0 ****  **** 
    294  MOH           2066 ****               0 ****  **** 
    295  MOH           2072 ****               0 ****  **** 
    296  MOH           2078 ****               0 ****  **** 
    297  MOH           2084 ****               0 ****  **** 
    298  MOH           2090 ****               0 ****  **** 
    299  MOH           2096 ****               0 ****  **** 
    300  MOH           2102 ****               0 ****  **** 
    301  MOH           2108 ****               0 ****  **** 
    302  MOH           2114 ****               0 ****  **** 
    303  MOH           2120 ****               0 ****  **** 
    304  MOH           2126 ****               0 ****  **** 
    305  MOH           2132 ****               0 ****  **** 
    306  MOH           2138 ****               0 ****  **** 
    307  MOH           2144 ****               0 ****  **** 
    308  MOH           2150 ****               0 ****  **** 
    309  MOH           2156 ****               0 ****  **** 
    310  MOH           2162 ****               0 ****  **** 
    311  MOH           2168 ****               0 ****  **** 
    312  MOH           2174 ****               0 ****  **** 
    313  MOH           2180 ****               0 ****  **** 
    314  MOH           2186 ****               0 ****  **** 
    315  MOH           2192 ****               0 ****  **** 
    316  MOH           2198 ****               0 ****  **** 
    317  MOH           2204 ****               0 ****  **** 
    318  MOH           2210 ****               0 ****  **** 
    319  MOH           2216 ****               0 ****  **** 
    320  MOH           2222 ****               0 ****  **** 
    321  MOH           2228 ****               0 ****  **** 
    322  MOH           2234 ****               0 ****  **** 
    323  MOH           2240 ****               0 ****  **** 
    324  MOH           2246 ****               0 ****  **** 
    325  MOH           2252 ****               0 ****  **** 
    326  MOH           2258 ****               0 ****  **** 
    327  MOH           2264 ****               0 ****  **** 
    328  MOH           2270 ****               0 ****  **** 
    329  MOH           2276 ****               0 ****  **** 
    330  MOH           2282 ****               0 ****  **** 
    331  MOH           2288 ****               0 ****  **** 
    332  MOH           2294 ****               0 ****  **** 
    333  MOH           2300 ****               0 ****  **** 
    334  MOH           2306 ****               0 ****  **** 
    335  MOH           2312 ****               0 ****  **** 
    336  MOH           2318 ****               0 ****  **** 
    337  MOH           2324 ****               0 ****  **** 
    338  MOH           2330 ****               0 ****  **** 
    339  MOH           2336 ****               0 ****  **** 
    340  MOH           2342 ****               0 ****  **** 
    341  MOH           2348 ****               0 ****  **** 
    342  MOH           2354 ****               0 ****  **** 
    343  MOH           2360 ****               0 ****  **** 
    344  MOH           2366 ****               0 ****  **** 
    345  MOH           2372 ****               0 ****  **** 
    346  MOH           2378 ****               0 ****  **** 
    347  MOH           2384 ****               0 ****  **** 
    348  MOH           2390 ****               0 ****  **** 
    349  MOH           2396 ****               0 ****  **** 
    350  MOH           2402 ****               0 ****  **** 
    351  MOH           2408 ****               0 ****  **** 
    352  MOH           2414 ****               0 ****  **** 
    353  MOH           2420 ****               0 ****  **** 
    354  MOH           2426 ****               0 ****  **** 
    355  MOH           2432 ****               0 ****  **** 
    356  MOH           2438 ****               0 ****  **** 
    357  MOH           2444 ****               0 ****  **** 
    358  MOH           2450 ****               0 ****  **** 
    359  MOH           2456 ****               0 ****  **** 
    360  MOH           2462 ****               0 ****  **** 
    361  MOH           2468 ****               0 ****  **** 
    362  MOH           2474 ****               0 ****  **** 
    363  MOH           2480 ****               0 ****  **** 
    364  MOH           2486 ****               0 ****  **** 
    365  MOH           2492 ****               0 ****  **** 
    366  MOH           2498 ****               0 ****  **** 
    367  MOH           2504 ****               0 ****  **** 
    368  MOH           2510 ****               0 ****  **** 
    369  MOH           2516 ****               0 ****  **** 
    370  MOH           2522 ****               0 ****  **** 
    371  MOH           2528 ****               0 ****  **** 
    372  MOH           2534 ****               0 ****  **** 
    373  MOH           2540 ****               0 ****  **** 
    374  MOH           2546 ****               0 ****  **** 
    375  MOH           2552 ****               0 ****  **** 
    376  MOH           2558 ****               0 ****  **** 
    377  MOH           2564 ****               0 ****  **** 
    378  MOH           2570 ****               0 ****  **** 
    379  MOH           2576 ****               0 ****  **** 
    380  MOH           2582 ****               0 ****  **** 
    381  MOH           2588 ****               0 ****  **** 
    382  MOH           2594 ****               0 ****  **** 
    383  MOH           2600 ****               0 ****  **** 
    384  MOH           2606 ****               0 ****  **** 
    385  MOH           2612 ****               0 ****  **** 
    386  MOH           2618 ****               0 ****  **** 
    387  MOH           2624 ****               0 ****  **** 
    388  MOH           2630 ****               0 ****  **** 
    389  MOH           2636 ****               0 ****  **** 
    390  MOH           2642 ****               0 ****  **** 
    391  MOH           2648 ****               0 ****  **** 
    392  MOH           2654 ****               0 ****  **** 
    393  MOH           2660 ****               0 ****  **** 
    394  MOH           2666 ****               0 ****  **** 
    395  MOH           2672 ****               0 ****  **** 
    396  MOH           2678 ****               0 ****  **** 
    397  MOH           2684 ****               0 ****  **** 
    398  MOH           2690 ****               0 ****  **** 
    399  MOH           2696 ****               0 ****  **** 
    400  MOH           2702 ****               0 ****  **** 
    401  MOH           2708 ****               0 ****  **** 
    402  MOH           2714 ****               0 ****  **** 
    403  MOH           2720 ****               0 ****  **** 
    404  MOH           2726 ****               0 ****  **** 
    405  MOH           2732 ****               0 ****  **** 
    406  MOH           2738 ****               0 ****  **** 
    407  MOH           2744 ****               0 ****  **** 
    408  MOH           2750 ****               0 ****  **** 
    409  MOH           2756 ****               0 ****  **** 
    410  MOH           2762 ****               0 ****  **** 
    411  MOH           2768 ****               0 ****  **** 
    412  MOH           2774 ****               0 ****  **** 
    413  MOH           2780 ****               0 ****  **** 
    414  MOH           2786 ****               0 ****  **** 
    415  MOH           2792 ****               0 ****  **** 
    416  MOH           2798 ****               0 ****  **** 
    417  MOH           2804 ****               0 ****  **** 
    418  MOH           2810 ****               0 ****  **** 
    419  MOH           2816 ****               0 ****  **** 
    420  MOH           2822 ****               0 ****  **** 
    421  MOH           2828 ****               0 ****  **** 
    422  MOH           2834 ****               0 ****  **** 
    423  MOH           2840 ****               0 ****  **** 
    424  MOH           2846 ****               0 ****  **** 
    425  MOH           2852 ****               0 ****  **** 
    426  MOH           2858 ****               0 ****  **** 
    427  MOH           2864 ****               0 ****  **** 
    428  MOH           2870 ****               0 ****  **** 
    429  MOH           2876 ****               0 ****  **** 
    430  MOH           2882 ****               0 ****  **** 
    431  MOH           2888 ****               0 ****  **** 
    432  MOH           2894 ****               0 ****  **** 
    433  MOH           2900 ****               0 ****  **** 
    434  MOH           2906 ****               0 ****  **** 
    435  MOH           2912 ****               0 ****  **** 
    436  MOH           2918 ****               0 ****  **** 
    437  MOH           2924 ****               0 ****  **** 
    438  MOH           2930 ****               0 ****  **** 
    439  MOH           2936 ****               0 ****  **** 
    440  MOH           2942 ****               0 ****  **** 
    441  MOH           2948 ****               0 ****  **** 
    442  MOH           2954 ****               0 ****  **** 
    443  MOH           2960 ****               0 ****  **** 
    444  MOH           2966 ****               0 ****  **** 
    445  MOH           2972 ****               0 ****  **** 
    446  MOH           2978 ****               0 ****  **** 
    447  MOH           2984 ****               0 ****  **** 
    448  MOH           2990 ****               0 ****  **** 
    449  MOH           2996 ****               0 ****  **** 
    450  MOH           3002 ****               0 ****  **** 
    451  MOH           3008 ****               0 ****  **** 
    452  MOH           3014 ****               0 ****  **** 
    453  MOH           3020 ****               0 ****  **** 
    454  MOH           3026 ****               0 ****  **** 
    455  MOH           3032 ****               0 ****  **** 
    456  MOH           3038 ****               0 ****  **** 
    457  MOH           3044 ****               0 ****  **** 
    458  MOH           3050 ****               0 ****  **** 
    459  MOH           3056 ****               0 ****  **** 
    460  MOH           3062 ****               0 ****  **** 
    461  MOH           3068 ****               0 ****  **** 
    462  MOH           3074 ****               0 ****  **** 
    463  MOH           3080 ****               0 ****  **** 
    464  MOH           3086 ****               0 ****  **** 
    465  MOH           3092 ****               0 ****  **** 
    466  MOH           3098 ****               0 ****  **** 
    467  MOH           3104 ****               0 ****  **** 
    468  MOH           3110 ****               0 ****  **** 
    469  MOH           3116 ****               0 ****  **** 
    470  MOH           3122 ****               0 ****  **** 
    471  MOH           3128 ****               0 ****  **** 
    472  MOH           3134 ****               0 ****  **** 
    473  MOH           3140 ****               0 ****  **** 
    474  MOH           3146 ****               0 ****  **** 
    475  MOH           3152 ****               0 ****  **** 
    476  MOH           3158 ****               0 ****  **** 
    477  MOH           3164 ****               0 ****  **** 
    478  MOH           3170 ****               0 ****  **** 
    479  MOH           3176 ****               0 ****  **** 
    480  MOH           3182 ****               0 ****  **** 
    481  MOH           3188 ****               0 ****  **** 
    482  MOH           3194 ****               0 ****  **** 
    483  MOH           3200 ****               0 ****  **** 
    484  MOH           3206 ****               0 ****  **** 
    485  MOH           3212 ****               0 ****  **** 
    486  MOH           3218 ****               0 ****  **** 
    487  MOH           3224 ****               0 ****  **** 
    488  MOH           3230 ****               0 ****  **** 
    489  MOH           3236 ****               0 ****  **** 
    490  MOH           3242 ****               0 ****  **** 
    491  MOH           3248 ****               0 ****  **** 
    492  MOH           3254 ****               0 ****  **** 
    493  MOH           3260 ****               0 ****  **** 
    494  MOH           3266 ****               0 ****  **** 
    495  MOH           3272 ****               0 ****  **** 
    496  MOH           3278 ****               0 ****  **** 
    497  MOH           3284 ****               0 ****  **** 
    498  MOH           3290 ****               0 ****  **** 
    499  MOH           3296 ****               0 ****  **** 
    500  MOH           3302 ****               0 ****  **** 
    501  MOH           3308 ****               0 ****  **** 
    502  MOH           3314 ****               0 ****  **** 
    503  MOH           3320 ****               0 ****  **** 
    504  MOH           3326 ****               0 ****  **** 
    505  MOH           3332 ****               0 ****  **** 
    506  MOH           3338 ****               0 ****  **** 
    507  MOH           3344 ****               0 ****  **** 
    508  MOH           3350 ****               0 ****  **** 
    509  MOH           3356 ****               0 ****  **** 
    510  MOH           3362 ****               0 ****  **** 
    511  MOH           3368 ****               0 ****  **** 
    512  MOH           3374 ****               0 ****  **** 
    513  MOH           3380 ****               0 ****  **** 
    514  MOH           3386 ****               0 ****  **** 
    515  MOH           3392 ****               0 ****  **** 
    516  MOH           3398 ****               0 ****  **** 
    517  MOH           3404 ****               0 ****  **** 
    518  MOH           3410 ****               0 ****  **** 
    519  MOH           3416 ****               0 ****  **** 
    520  MOH           3422 ****               0 ****  **** 
    521  MOH           3428 ****               0 ****  **** 
    522  MOH           3434 ****               0 ****  **** 
    523  MOH           3440 ****               0 ****  **** 
    524  MOH           3446 ****               0 ****  **** 
    525  MOH           3452 ****               0 ****  **** 
    526  MOH           3458 ****               0 ****  **** 
    527  MOH           3464 ****               0 ****  **** 
    528  MOH           3470 ****               0 ****  **** 
    529  MOH           3476 ****               0 ****  **** 
    530  MOH           3482 ****               0 ****  **** 
    531  MOH           3488 ****               0 ****  **** 
    532  MOH           3494 ****               0 ****  **** 
    533  MOH           3500 ****               0 ****  **** 
    534  MOH           3506 ****               0 ****  **** 
    535  MOH           3512 ****               0 ****  **** 
    536  MOH           3518 ****               0 ****  **** 
    537  MOH           3524 ****               0 ****  **** 
    538  MOH           3530 ****               0 ****  **** 
    539  MOH           3536 ****               0 ****  **** 
    540  MOH           3542 ****               0 ****  **** 
    541  MOH           3548 ****               0 ****  **** 
    542  MOH           3554 ****               0 ****  **** 
    543  MOH           3560 ****               0 ****  **** 
    544  MOH           3566 ****               0 ****  **** 
    545  MOH           3572 ****               0 ****  **** 
    546  MOH           3578 ****               0 ****  **** 
    547  MOH           3584 ****               0 ****  **** 
    548  MOH           3590 ****               0 ****  **** 
    549  MOH           3596 ****               0 ****  **** 
    550  MOH           3602 ****               0 ****  **** 
    551  MOH           3608 ****               0 ****  **** 
    552  MOH           3614 ****               0 ****  **** 
    553  MOH           3620 ****               0 ****  **** 
    554  MOH           3626 ****               0 ****  **** 
    555  MOH           3632 ****               0 ****  **** 
    556  MOH           3638 ****               0 ****  **** 
    557  MOH           3644 ****               0 ****  **** 
    558  MOH           3650 ****               0 ****  **** 
    559  MOH           3656 ****               0 ****  **** 
    560  MOH           3662 ****               0 ****  **** 
    561  MOH           3668 ****               0 ****  **** 
    562  MOH           3674 ****               0 ****  **** 
    563  MOH           3680 ****               0 ****  **** 
    564  MOH           3686 ****               0 ****  **** 
    565  MOH           3692 ****               0 ****  **** 
    566  MOH           3698 ****               0 ****  **** 
    567  MOH           3704 ****               0 ****  **** 
    568  MOH           3710 ****               0 ****  **** 
    569  MOH           3716 ****               0 ****  **** 
    570  MOH           3722 ****               0 ****  **** 
    571  MOH           3728 ****               0 ****  **** 
    572  MOH           3734 ****               0 ****  **** 
    573  MOH           3740 ****               0 ****  **** 
    574  MOH           3746 ****               0 ****  **** 
    575  MOH           3752 ****               0 ****  **** 
    576  MOH           3758 ****               0 ****  **** 
    577  MOH           3764 ****               0 ****  **** 
    578  MOH           3770 ****               0 ****  **** 
    579  MOH           3776 ****               0 ****  **** 
    580  MOH           3782 ****               0 ****  **** 
    581  MOH           3788 ****               0 ****  **** 
    582  MOH           3794 ****               0 ****  **** 
    583  MOH           3800 ****               0 ****  **** 
    584  MOH           3806 ****               0 ****  **** 
    585  MOH           3812 ****               0 ****  **** 
    586  MOH           3818 ****               0 ****  **** 
    587  MOH           3824 ****               0 ****  **** 
    588  MOH           3830 ****               0 ****  **** 
    589  MOH           3836 ****               0 ****  **** 
    590  MOH           3842 ****               0 ****  **** 
    591  MOH           3848 ****               0 ****  **** 
    592  MOH           3854 ****               0 ****  **** 
    593  MOH           3860 ****               0 ****  **** 
    594  MOH           3866 ****               0 ****  **** 
    595  MOH           3872 ****               0 ****  **** 
    596  MOH           3878 ****               0 ****  **** 
    597  MOH           3884 ****               0 ****  **** 
    598  MOH           3890 ****               0 ****  **** 
    599  MOH           3896 ****               0 ****  **** 
    600  MOH           3902 ****               0 ****  **** 
    601  MOH           3908 ****               0 ****  **** 
    602  MOH           3914 ****               0 ****  **** 
    603  MOH           3920 ****               0 ****  **** 
    604  MOH           3926 ****               0 ****  **** 
    605  MOH           3932 ****               0 ****  **** 
    606  MOH           3938 ****               0 ****  **** 
    607  MOH           3944 ****               0 ****  **** 
    608  MOH           3950 ****               0 ****  **** 
    609  MOH           3956 ****               0 ****  **** 
    610  MOH           3962 ****               0 ****  **** 
    611  MOH           3968 ****               0 ****  **** 
    612  MOH           3974 ****               0 ****  **** 
    613  MOH           3980 ****               0 ****  **** 
    614  MOH           3986 ****               0 ****  **** 
    615  MOH           3992 ****               0 ****  **** 
    616  MOH           3998 ****               0 ****  **** 
    617  MOH           4004 ****               0 ****  **** 
    618  MOH           4010 ****               0 ****  **** 
    619  MOH           4016 ****               0 ****  **** 
    620  MOH           4022 ****               0 ****  **** 
    621  MOH           4028 ****               0 ****  **** 
    622  MOH           4034 ****               0 ****  **** 
    623  MOH           4040 ****               0 ****  **** 
    624  MOH           4046 ****               0 ****  **** 
    625  MOH           4052 ****               0 ****  **** 
    626  MOH           4058 ****               0 ****  **** 
    627  MOH           4064 ****               0 ****  **** 
    628  MOH           4070 ****               0 ****  **** 
    629  MOH           4076 ****               0 ****  **** 
    630  MOH           4082 ****               0 ****  **** 
    631  MOH           4088 ****               0 ****  **** 
    632  MOH           4094 ****               0 ****  **** 
    633  MOH           4100 ****               0 ****  **** 
    634  MOH           4106 ****               0 ****  **** 
    635  MOH           4112 ****               0 ****  **** 
    636  MOH           4118 ****               0 ****  **** 
    637  MOH           4124 ****               0 ****  **** 
    638  MOH           4130 ****               0 ****  **** 
    639  MOH           4136 ****               0 ****  **** 
    640  MOH           4142 ****               0 ****  **** 
    641  MOH           4148 ****               0 ****  **** 
    642  MOH           4154 ****               0 ****  **** 
    643  MOH           4160 ****               0 ****  **** 
    644  MOH           4166 ****               0 ****  **** 
    645  MOH           4172 ****               0 ****  **** 
    646  MOH           4178 ****               0 ****  **** 
    647  MOH           4184 ****               0 ****  **** 
    648  MOH           4190 ****               0 ****  **** 
    649  MOH           4196 ****               0 ****  **** 
    650  MOH           4202 ****               0 ****  **** 
    651  MOH           4208 ****               0 ****  **** 
    652  MOH           4214 ****               0 ****  **** 
    653  MOH           4220 ****               0 ****  **** 
    654  MOH           4226 ****               0 ****  **** 
    655  MOH           4232 ****               0 ****  **** 
    656  MOH           4238 ****               0 ****  **** 
    657  MOH           4244 ****               0 ****  **** 
    658  MOH           4250 ****               0 ****  **** 
    659  MOH           4256 ****               0 ****  **** 
    660  MOH           4262 ****               0 ****  **** 
    661  MOH           4268 ****               0 ****  **** 
    662  MOH           4274 ****               0 ****  **** 
    663  MOH           4280 ****               0 ****  **** 
    664  MOH           4286 ****               0 ****  **** 
    665  MOH           4292 ****               0 ****  **** 
    666  MOH           4298 ****               0 ****  **** 
    667  MOH           4304 ****               0 ****  **** 
    668  MOH           4310 ****               0 ****  **** 
    669  MOH           4316 ****               0 ****  **** 
    670  MOH           4322 ****               0 ****  **** 
    671  MOH           4328 ****               0 ****  **** 
    672  MOH           4334 ****               0 ****  **** 
    673  MOH           4340 ****               0 ****  **** 
    674  MOH           4346 ****               0 ****  **** 
    675  MOH           4352 ****               0 ****  **** 
    676  MOH           4358 ****               0 ****  **** 
    677  MOH           4364 ****               0 ****  **** 
    678  MOH           4370 ****               0 ****  **** 
    679  MOH           4376 ****               0 ****  **** 
    680  MOH           4382 ****               0 ****  **** 
    681  MOH           4388 ****               0 ****  **** 
    682  MOH           4394 ****               0 ****  **** 
    683  MOH           4400 ****               0 ****  **** 
    684  MOH           4406 ****               0 ****  **** 
    685  MOH           4412 ****               0 ****  **** 
    686  MOH           4418 ****               0 ****  **** 
    687  MOH           4424 ****               0 ****  **** 
    688  MOH           4430 ****               0 ****  **** 
    689  MOH           4436 ****               0 ****  **** 
    690  MOH           4442 ****               0 ****  **** 
    691  MOH           4448 ****               0 ****  **** 
    692  MOH           4454 ****               0 ****  **** 
    693  MOH           4460 ****               0 ****  **** 
    694  MOH           4466 ****               0 ****  **** 
    695  MOH           4472 ****               0 ****  **** 
    696  MOH           4478 ****               0 ****  **** 
    697  MOH           4484 ****               0 ****  **** 
    698  MOH           4490 ****               0 ****  **** 
    699  MOH           4496 ****               0 ****  **** 
    700  MOH           4502 ****               0 ****  **** 
    701  MOH           4508 ****               0 ****  **** 
    702  MOH           4514 ****               0 ****  **** 
    703  MOH           4520 ****               0 ****  **** 
    704  MOH           4526 ****               0 ****  **** 
    705  MOH           4532 ****               0 ****  **** 
    706  MOH           4538 ****               0 ****  **** 
    707  MOH           4544 ****               0 ****  **** 
    708  MOH           4550 ****               0 ****  **** 
    709  MOH           4556 ****               0 ****  **** 
    710  MOH           4562 ****               0 ****  **** 
    711  MOH           4568 ****               0 ****  **** 
    712  MOH           4574 ****               0 ****  **** 
    713  MOH           4580 ****               0 ****  **** 
    714  MOH           4586 ****               0 ****  **** 
    715  MOH           4592 ****               0 ****  **** 
    716  MOH           4598 ****               0 ****  **** 
    717  MOH           4604 ****               0 ****  **** 
    718  MOH           4610 ****               0 ****  **** 
    719  MOH           4616 ****               0 ****  **** 
    720  MOH           4622 ****               0 ****  **** 
    721  MOH           4628 ****               0 ****  **** 
    722  MOH           4634 ****               0 ****  **** 
    723  MOH           4640 ****               0 ****  **** 
    724  MOH           4646 ****               0 ****  **** 
    725  MOH           4652 ****               0 ****  **** 
    726  MOH           4658 ****               0 ****  **** 
    727  MOH           4664 ****               0 ****  **** 
    728  MOH           4670 ****               0 ****  **** 
    729  MOH           4676 ****               0 ****  **** 
    730  MOH           4682 ****               0 ****  **** 
    731  MOH           4688 ****               0 ****  **** 
    732  MOH           4694 ****               0 ****  **** 
    733  MOH           4700 ****               0 ****  **** 
    734  MOH           4706 ****               0 ****  **** 
    735  MOH           4712 ****               0 ****  **** 
    736  MOH           4718 ****               0 ****  **** 
    737  MOH           4724 ****               0 ****  **** 
    738  MOH           4730 ****               0 ****  **** 
    739  MOH           4736 ****               0 ****  **** 
    740  MOH           4742 ****               0 ****  **** 
    741  MOH           4748 ****               0 ****  **** 
    742  MOH           4754 ****               0 ****  **** 
    743  MOH           4760 ****               0 ****  **** 
    744  MOH           4766 ****               0 ****  **** 
    745  MOH           4772 ****               0 ****  **** 
    746  MOH           4778 ****               0 ****  **** 
    747  MOH           4784 ****               0 ****  **** 
    748  MOH           4790 ****               0 ****  **** 
    749  MOH           4796 ****               0 ****  **** 
    750  MOH           4802 ****               0 ****  **** 
    751  MOH           4808 ****               0 ****  **** 
    752  MOH           4814 ****               0 ****  **** 
    753  MOH           4820 ****               0 ****  **** 
    754  MOH           4826 ****               0 ****  **** 
    755  MOH           4832 ****               0 ****  **** 
    756  MOH           4838 ****               0 ****  **** 
    757  MOH           4844 ****               0 ****  **** 
    758  MOH           4850 ****               0 ****  **** 
    759  MOH           4856 ****               0 ****  **** 
    760  MOH           4862 ****               0 ****  **** 
    761  MOH           4868 ****               0 ****  **** 
    762  MOH           4874 ****               0 ****  **** 
    763  MOH           4880 ****               0 ****  **** 
    764  MOH           4886 ****               0 ****  **** 
    765  MOH           4892 ****               0 ****  **** 
    766  MOH           4898 ****               0 ****  **** 
    767  MOH           4904 ****               0 ****  **** 
    768  MOH           4910 ****               0 ****  **** 
    769  MOH           4916 ****               0 ****  **** 
    770  MOH           4922 ****               0 ****  **** 
    771  MOH           4928 ****               0 ****  **** 
    772  MOH           4934 ****               0 ****  **** 
    773  MOH           4940 ****               0 ****  **** 
    774  MOH           4946 ****               0 ****  **** 
    775  MOH           4952 ****               0 ****  **** 
    776  MOH           4958 ****               0 ****  **** 
    777  MOH           4964 ****               0 ****  **** 
    778  MOH           4970 ****               0 ****  **** 
    779  MOH           4976 ****               0 ****  **** 
    780  MOH           4982 ****               0 ****  **** 
    781  MOH           4988 ****               0 ****  **** 
    782  MOH           4994 ****               0 ****  **** 
    783  MOH           5000 ****               0 ****  **** 
    784  MOH           5006 ****               0 ****  **** 
    785  MOH           5012 ****               0 ****  **** 
    786  MOH           5018 ****               0 ****  **** 
    787  MOH           5024 ****               0 ****  **** 
    788  MOH           5030 ****               0 ****  **** 
    789  MOH           5036 ****               0 ****  **** 
    790  MOH           5042 ****               0 ****  **** 
    791  MOH           5048 ****               0 ****  **** 
    792  MOH           5054 ****               0 ****  **** 
    793  MOH           5060 ****               0 ****  **** 
    794  MOH           5066 ****               0 ****  **** 
    795  MOH           5072 ****               0 ****  **** 
    796  MOH           5078 ****               0 ****  **** 
    797  MOH           5084 ****               0 ****  **** 
    798  MOH           5090 ****               0 ****  **** 
    799  MOH           5096 ****               0 ****  **** 
    800  MOH           5102 ****               0 ****  **** 
    801  MOH           5108 ****               0 ****  **** 
    802  MOH           5114 ****               0 ****  **** 
    803  MOH           5120 ****               0 ****  **** 
    804  MOH           5126 ****               0 ****  **** 
    805  MOH           5132 ****               0 ****  **** 
    806  MOH           5138 ****               0 ****  **** 
    807  MOH           5144 ****               0 ****  **** 
    808  MOH           5150 ****               0 ****  **** 
    809  MOH           5156 ****               0 ****  **** 
    810  MOH           5162 ****               0 ****  **** 
    811  MOH           5168 ****               0 ****  **** 
    812  MOH           5174 ****               0 ****  **** 
    813  MOH           5180 ****               0 ****  **** 
    814  MOH           5186 ****               0 ****  **** 
    815  MOH           5192 ****               0 ****  **** 
    816  MOH           5198 ****               0 ****  **** 
    817  MOH           5204 ****               0 ****  **** 
    818  MOH           5210 ****               0 ****  **** 
    819  MOH           5216 ****               0 ****  **** 
    820  MOH           5222 ****               0 ****  **** 
    821  MOH           5228 ****               0 ****  **** 
    822  MOH           5234 ****               0 ****  **** 
    823  MOH           5240 ****               0 ****  **** 
    824  MOH           5246 ****               0 ****  **** 
    825  MOH           5252 ****               0 ****  **** 
    826  MOH           5258 ****               0 ****  **** 
    827  MOH           5264 ****               0 ****  **** 
    828  MOH           5270 ****               0 ****  **** 
    829  MOH           5276 ****               0 ****  **** 
    830  MOH           5282 ****               0 ****  **** 
    831  MOH           5288 ****               0 ****  **** 
    832  MOH           5294 ****               0 ****  **** 
    833  MOH           5300 ****               0 ****  **** 
    834  MOH           5306 ****               0 ****  **** 
    835  MOH           5312 ****               0 ****  **** 
    836  MOH           5318 ****               0 ****  **** 
    837  MOH           5324 ****               0 ****  **** 
    838  MOH           5330 ****               0 ****  **** 
    839  MOH           5336 ****               0 ****  **** 
    840  MOH           5342 ****               0 ****  **** 
    841  MOH           5348 ****               0 ****  **** 
    842  MOH           5354 ****               0 ****  **** 
    843  MOH           5360 ****               0 ****  **** 
    844  MOH           5366 ****               0 ****  **** 
    845  MOH           5372 ****               0 ****  **** 
    846  MOH           5378 ****               0 ****  **** 
    847  MOH           5384 ****               0 ****  **** 
    848  MOH           5390 ****               0 ****  **** 
    849  MOH           5396 ****               0 ****  **** 
    850  MOH           5402 ****               0 ****  **** 
    851  MOH           5408 ****               0 ****  **** 
    852  MOH           5414 ****               0 ****  **** 
    853  MOH           5420 ****               0 ****  **** 
    854  MOH           5426 ****               0 ****  **** 
    855  MOH           5432 ****               0 ****  **** 
    856  MOH           5438 ****               0 ****  **** 
    857  MOH           5444 ****               0 ****  **** 
    858  MOH           5450 ****               0 ****  **** 
    859  MOH           5456 ****               0 ****  **** 
    860  MOH           5462 ****               0 ****  **** 
    861  MOH           5468 ****               0 ****  **** 
    862  MOH           5474 ****               0 ****  **** 
    863  MOH           5480 ****               0 ****  **** 
    864  MOH           5486 ****               0 ****  **** 
    865  MOH           5492 ****               0 ****  **** 
    866  MOH           5498 ****               0 ****  **** 
    867  MOH           5504 ****               0 ****  **** 
    868  MOH           5510 ****               0 ****  **** 
    869  MOH           5516 ****               0 ****  **** 
    870  MOH           5522 ****               0 ****  **** 
    871  MOH           5528 ****               0 ****  **** 
    872  MOH           5534 ****               0 ****  **** 
    873  MOH           5540 ****               0 ****  **** 
    874  MOH           5546 ****               0 ****  **** 
    875  MOH           5552 ****               0 ****  **** 
    876  MOH           5558 ****               0 ****  **** 
    877  MOH           5564 ****               0 ****  **** 
    878  MOH           5570 ****               0 ****  **** 
    879  MOH           5576 ****               0 ****  **** 
    880  MOH           5582 ****               0 ****  **** 
    881  MOH           5588 ****               0 ****  **** 
    882  MOH           5594 ****               0 ****  **** 
    883  MOH           5600 ****               0 ****  **** 
    884  MOH           5606 ****               0 ****  **** 
    885  MOH           5612 ****               0 ****  **** 
    886  MOH           5618 ****               0 ****  **** 
    887  MOH           5624 ****               0 ****  **** 
    888  MOH           5630 ****               0 ****  **** 
    889  MOH           5636 ****               0 ****  **** 
    890  MOH           5642 ****               0 ****  **** 
    891  MOH           5648 ****               0 ****  **** 
    892  MOH           5654 ****               0 ****  **** 
    893  MOH           5660 ****               0 ****  **** 
    894  MOH           5666 ****               0 ****  **** 
    895  MOH           5672 ****               0 ****  **** 
    896  MOH           5678 ****               0 ****  **** 
    897  MOH           5684 ****               0 ****  **** 
    898  MOH           5690 ****               0 ****  **** 
    899  MOH           5696 ****               0 ****  **** 
    900  MOH           5702 ****               0 ****  **** 
    901  MOH           5708 ****               0 ****  **** 
    902  MOH           5714 ****               0 ****  **** 
    903  MOH           5720 ****               0 ****  **** 
    904  MOH           5726 ****               0 ****  **** 
    905  MOH           5732 ****               0 ****  **** 
    906  MOH           5738 ****               0 ****  **** 
    907  MOH           5744 ****               0 ****  **** 
    908  MOH           5750 ****               0 ****  **** 
    909  MOH           5756 ****               0 ****  **** 
    910  MOH           5762 ****               0 ****  **** 
    911  MOH           5768 ****               0 ****  **** 
    912  MOH           5774 ****               0 ****  **** 
    913  MOH           5780 ****               0 ****  **** 
    914  MOH           5786 ****               0 ****  **** 
    915  MOH           5792 ****               0 ****  **** 
    916  MOH           5798 ****               0 ****  **** 
    917  MOH           5804 ****               0 ****  **** 
    918  MOH           5810 ****               0 ****  **** 
    919  MOH           5816 ****               0 ****  **** 
    920  MOH           5822 ****               0 ****  **** 
    921  MOH           5828 ****               0 ****  **** 
    922  MOH           5834 ****               0 ****  **** 
    923  MOH           5840 ****               0 ****  **** 
    924  MOH           5846 ****               0 ****  **** 
    925  MOH           5852 ****               0 ****  **** 
    926  MOH           5858 ****               0 ****  **** 
    927  MOH           5864 ****               0 ****  **** 
    928  MOH           5870 ****               0 ****  **** 
    929  MOH           5876 ****               0 ****  **** 
    930  MOH           5882 ****               0 ****  **** 
    931  MOH           5888 ****               0 ****  **** 
    932  MOH           5894 ****               0 ****  **** 
    933  MOH           5900 ****               0 ****  **** 
    934  MOH           5906 ****               0 ****  **** 
    935  MOH           5912 ****               0 ****  **** 
    936  MOH           5918 ****               0 ****  **** 
    937  MOH           5924 ****               0 ****  **** 
    938  MOH           5930 ****               0 ****  **** 
    939  MOH           5936 ****               0 ****  **** 
    940  MOH           5942 ****               0 ****  **** 
    941  MOH           5948 ****               0 ****  **** 
    942  MOH           5954 ****               0 ****  **** 
    943  MOH           5960 ****               0 ****  **** 
    944  MOH           5966 ****               0 ****  **** 
    945  MOH           5972 ****               0 ****  **** 
    946  MOH           5978 ****               0 ****  **** 
    947  MOH           5984 ****               0 ****  **** 
    948  MOH           5990 ****               0 ****  **** 
    949  MOH           5996 ****               0 ****  **** 
    950  MOH           6002 ****               0 ****  **** 
    951  MOH           6008 ****               0 ****  **** 
    952  MOH           6014 ****               0 ****  **** 
    953  MOH           6020 ****               0 ****  **** 
    954  MOH           6026 ****               0 ****  **** 
    955  MOH           6032 ****               0 ****  **** 
    956  MOH           6038 ****               0 ****  **** 
    957  MOH           6044 ****               0 ****  **** 
    958  MOH           6050 ****               0 ****  **** 
    959  MOH           6056 ****               0 ****  **** 
    960  MOH           6062 ****               0 ****  **** 
    961  MOH           6068 ****               0 ****  **** 
    962  MOH           6074 ****               0 ****  **** 
    963  MOH           6080 ****               0 ****  **** 
    964  MOH           6086 ****               0 ****  **** 
    965  MOH           6092 ****               0 ****  **** 
    966  MOH           6098 ****               0 ****  **** 
    967  MOH           6104 ****               0 ****  **** 
    968  MOH           6110 ****               0 ****  **** 
    969  MOH           6116 ****               0 ****  **** 
    970  MOH           6122 ****               0 ****  **** 
    971  MOH           6128 ****               0 ****  **** 
    972  MOH           6134 ****               0 ****  **** 
    973  MOH           6140 ****               0 ****  **** 
    974  MOH           6146 ****               0 ****  **** 
    975  MOH           6152 ****               0 ****  **** 
    976  MOH           6158 ****               0 ****  **** 
    977  MOH           6164 ****               0 ****  **** 
    978  MOH           6170 ****               0 ****  **** 
    979  MOH           6176 ****               0 ****  **** 
    980  MOH           6182 ****               0 ****  **** 
    981  MOH           6188 ****               0 ****  **** 
    982  MOH           6194 ****               0 ****  **** 
    983  MOH           6200 ****               0 ****  **** 
    984  MOH           6206 ****               0 ****  **** 
    985  MOH           6212 ****               0 ****  **** 
    986  MOH           6218 ****               0 ****  **** 
    987  MOH           6224 ****               0 ****  **** 
    988  MOH           6230 ****               0 ****  **** 
    989  MOH           6236 ****               0 ****  **** 
    990  MOH           6242 ****               0 ****  **** 
    991  MOH           6248 ****               0 ****  **** 
    992  MOH           6254 ****               0 ****  **** 
    993  MOH           6260 ****               0 ****  **** 
    994  MOH           6266 ****               0 ****  **** 
    995  MOH           6272 ****               0 ****  **** 
    996  MOH           6278 ****               0 ****  **** 
    997  MOH           6284 ****               0 ****  **** 
    998  MOH           6290 ****               0 ****  **** 
    999  MOH           6296 ****               0 ****  **** 
   1000  MOH           6302 ****               0 ****  **** 
   1001  MOH           6308 ****               0 ****  **** 
   1002  MOH           6314 ****               0 ****  **** 
   1003  MOH           6320 ****               0 ****  **** 
   1004  MOH           6326 ****               0 ****  **** 
   1005  MOH           6332 ****               0 ****  **** 
   1006  MOH           6338 ****               0 ****  **** 
   1007  MOH           6344 ****               0 ****  **** 
   1008  MOH           6350 ****               0 ****  **** 
   1009  MOH           6356 ****               0 ****  **** 
   1010  MOH           6362 ****               0 ****  **** 
   1011  MOH           6368 ****               0 ****  **** 
   1012  MOH           6374 ****               0 ****  **** 
   1013  MOH           6380 ****               0 ****  **** 
   1014  MOH           6386 ****               0 ****  **** 
   1015  MOH           6392 ****               0 ****  **** 
   1016  MOH           6398 ****               0 ****  **** 
   1017  MOH           6404 ****               0 ****  **** 
   1018  MOH           6410 ****               0 ****  **** 
   1019  MOH           6416 ****               0 ****  **** 
   1020  MOH           6422 ****               0 ****  **** 
   1021  MOH           6428 ****               0 ****  **** 
   1022  MOH           6434 ****               0 ****  **** 
   1023  MOH           6440 ****               0 ****  **** 
   1024  MOH           6446 ****               0 ****  **** 
   1025  MOH           6452 ****               0 ****  **** 
   1026  MOH           6458 ****               0 ****  **** 
   1027  MOH           6464 ****               0 ****  **** 
   1028  MOH           6470 ****               0 ****  **** 
   1029  MOH           6476 ****               0 ****  **** 
   1030  MOH           6482 ****               0 ****  **** 
   1031  MOH           6488 ****               0 ****  **** 
   1032  MOH           6494 ****               0 ****  **** 
   1033  MOH           6500 ****               0 ****  **** 
   1034  MOH           6506 ****               0 ****  **** 
   1035  MOH           6512 ****               0 ****  **** 
   1036  MOH           6518 ****               0 ****  **** 
   1037  MOH           6524 ****               0 ****  **** 
   1038  MOH           6530 ****               0 ****  **** 
   1039  MOH           6536 ****               0 ****  **** 
   1040  MOH           6542 ****               0 ****  **** 
   1041  MOH           6548 ****               0 ****  **** 
   1042  MOH           6554 ****               0 ****  **** 
   1043  MOH           6560 ****               0 ****  **** 
   1044  MOH           6566 ****               0 ****  **** 
   1045  MOH           6572 ****               0 ****  **** 
   1046  MOH           6578 ****               0 ****  **** 
   1047  MOH           6584 ****               0 ****  **** 
   1048  MOH           6590 ****               0 ****  **** 
   1049  MOH           6596 ****               0 ****  **** 
   1050  MOH           6602 ****               0 ****  **** 
   1051  MOH           6608 ****               0 ****  **** 
   1052  MOH           6614 ****               0 ****  **** 
   1053  MOH           6620 ****               0 ****  **** 
   1054  MOH           6626 ****               0 ****  **** 
   1055  MOH           6632 ****               0 ****  **** 
   1056  MOH           6638 ****               0 ****  **** 
   1057  MOH           6644 ****               0 ****  **** 
   1058  MOH           6650 ****               0 ****  **** 
   1059  MOH           6656 ****               0 ****  **** 
   1060  MOH           6662 ****               0 ****  **** 
   1061  MOH           6668 ****               0 ****  **** 
   1062  MOH           6674 ****               0 ****  **** 
   1063  MOH           6680 ****               0 ****  **** 
   1064  MOH           6686 ****               0 ****  **** 
   1065  MOH           6692 ****               0 ****  **** 
   1066  MOH           6698 ****               0 ****  **** 
   1067  MOH           6704 ****               0 ****  **** 
   1068  MOH           6710 ****               0 ****  **** 
   1069  MOH           6716 ****               0 ****  **** 
   1070  MOH           6722 ****               0 ****  **** 
   1071  MOH           6728 ****               0 ****  **** 
   1072  MOH           6734 ****               0 ****  **** 
   1073  MOH           6740 ****               0 ****  **** 
   1074  MOH           6746 ****               0 ****  **** 
   1075  MOH           6752 ****               0 ****  **** 
   1076  MOH           6758 ****               0 ****  **** 
   1077  MOH           6764 ****               0 ****  **** 
   1078  MOH           6770 ****               0 ****  **** 
   1079  MOH           6776 ****               0 ****  **** 
   1080  MOH           6782 ****               0 ****  **** 
   1081  MOH           6788 ****               0 ****  **** 
   1082  MOH           6794 ****               0 ****  **** 
   1083  MOH           6800 ****               0 ****  **** 
   1084  MOH           6806 ****               0 ****  **** 
   1085  MOH           6812 ****               0 ****  **** 
   1086  MOH           6818 ****               0 ****  **** 
   1087  MOH           6824 ****               0 ****  **** 
   1088  MOH           6830 ****               0 ****  **** 
   1089  MOH           6836 ****               0 ****  **** 
   1090  MOH           6842 ****               0 ****  **** 
   1091  MOH           6848 ****               0 ****  **** 
   1092  MOH           6854 ****               0 ****  **** 
   1093  MOH           6860 ****               0 ****  **** 
   1094  MOH           6866 ****               0 ****  **** 
   1095  MOH           6872 ****               0 ****  **** 
   1096  MOH           6878 ****               0 ****  **** 
   1097  MOH           6884 ****               0 ****  **** 
   1098  MOH           6890 ****               0 ****  **** 
   1099  MOH           6896 ****               0 ****  **** 
   1100  MOH           6902 ****               0 ****  **** 
   1101  MOH           6908 ****               0 ****  **** 
   1102  MOH           6914 ****               0 ****  **** 
   1103  MOH           6920 ****               0 ****  **** 
   1104  MOH           6926 ****               0 ****  **** 
   1105  MOH           6932 ****               0 ****  **** 
   1106  MOH           6938 ****               0 ****  **** 
   1107  MOH           6944 ****               0 ****  **** 
   1108  MOH           6950 ****               0 ****  **** 
   1109  MOH           6956 ****               0 ****  **** 
   1110  MOH           6962 ****               0 ****  **** 
   1111  MOH           6968 ****               0 ****  **** 
   1112  MOH           6974 ****               0 ****  **** 
   1113  MOH           6980 ****               0 ****  **** 
   1114  MOH           6986 ****               0 ****  **** 
   1115  MOH           6992 ****               0 ****  **** 
   1116  MOH           6998 ****               0 ****  **** 
   1117  MOH           7004 ****               0 ****  **** 
   1118  MOH           7010 ****               0 ****  **** 
   1119  MOH           7016 ****               0 ****  **** 
   1120  MOH           7022 ****               0 ****  **** 
   1121  MOH           7028 ****               0 ****  **** 
   1122  MOH           7034 ****               0 ****  **** 
   1123  MOH           7040 ****               0 ****  **** 
   1124  MOH           7046 ****               0 ****  **** 
   1125  MOH           7052 ****               0 ****  **** 
   1126  MOH           7058 ****               0 ****  **** 
   1127  MOH           7064 ****               0 ****  **** 
   1128  MOH           7070 ****               0 ****  **** 
   1129  MOH           7076 ****               0 ****  **** 
   1130  MOH           7082 ****               0 ****  **** 
   1131  MOH           7088 ****               0 ****  **** 
   1132  MOH           7094 ****               0 ****  **** 
   1133  MOH           7100 ****               0 ****  **** 
   1134  MOH           7106 ****               0 ****  **** 
   1135  MOH           7112 ****               0 ****  **** 
   1136  MOH           7118 ****               0 ****  **** 
   1137  MOH           7124 ****               0 ****  **** 
   1138  MOH           7130 ****               0 ****  **** 
   1139  MOH           7136 ****               0 ****  **** 
   1140  MOH           7142 ****               0 ****  **** 
   1141  MOH           7148 ****               0 ****  **** 
   1142  MOH           7154 ****               0 ****  **** 
   1143  MOH           7160 ****               0 ****  **** 
   1144  MOH           7166 ****               0 ****  **** 
   1145  MOH           7172 ****               0 ****  **** 
   1146  MOH           7178 ****               0 ****  **** 
   1147  MOH           7184 ****               0 ****  **** 
   1148  MOH           7190 ****               0 ****  **** 
   1149  MOH           7196 ****               0 ****  **** 
   1150  MOH           7202 ****               0 ****  **** 
   1151  MOH           7208 ****               0 ****  **** 
   1152  MOH           7214 ****               0 ****  **** 
   1153  MOH           7220 ****               0 ****  **** 
   1154  MOH           7226 ****               0 ****  **** 
   1155  MOH           7232 ****               0 ****  **** 
   1156  MOH           7238 ****               0 ****  **** 
   1157  MOH           7244 ****               0 ****  **** 
   1158  MOH           7250 ****               0 ****  **** 
   1159  MOH           7256 ****               0 ****  **** 
   1160  MOH           7262 ****               0 ****  **** 
   1161  MOH           7268 ****               0 ****  **** 
   1162  MOH           7274 ****               0 ****  **** 
   1163  MOH           7280 ****               0 ****  **** 
   1164  MOH           7286 ****               0 ****  **** 
   1165  MOH           7292 ****               0 ****  **** 
   1166  MOH           7298 ****               0 ****  **** 
   1167  MOH           7304 ****               0 ****  **** 
   1168  MOH           7310 ****               0 ****  **** 
   1169  MOH           7316 ****               0 ****  **** 
   1170  MOH           7322 ****               0 ****  **** 
   1171  MOH           7328 ****               0 ****  **** 
   1172  MOH           7334 ****               0 ****  **** 
   1173  MOH           7340 ****               0 ****  **** 
   1174  MOH           7346 ****               0 ****  **** 
   1175  MOH           7352 ****               0 ****  **** 
   1176  MOH           7358 ****               0 ****  **** 
   1177  MOH           7364 ****               0 ****  **** 
   1178  MOH           7370 ****               0 ****  **** 
   1179  MOH           7376 ****               0 ****  **** 
   1180  MOH           7382 ****               0 ****  **** 
   1181  MOH           7388 ****               0 ****  **** 
   1182  MOH           7394 ****               0 ****  **** 
   1183  MOH           7400 ****               0 ****  **** 
   1184  MOH           7406 ****               0 ****  **** 
   1185  MOH           7412 ****               0 ****  **** 
   1186  MOH           7418 ****               0 ****  **** 
   1187  MOH           7424 ****               0 ****  **** 
   1188  MOH           7430 ****               0 ****  **** 
   1189  MOH           7436 ****               0 ****  **** 
   1190  MOH           7442 ****               0 ****  **** 
   1191  MOH           7448 ****               0 ****  **** 
   1192  MOH           7454 ****               0 ****  **** 
   1193  MOH           7460 ****               0 ****  **** 
   1194  MOH           7466 ****               0 ****  **** 
   1195  MOH           7472 ****               0 ****  **** 
   1196  MOH           7478 ****               0 ****  **** 
   1197  MOH           7484 ****               0 ****  **** 
   1198  MOH           7490 ****               0 ****  **** 
   1199  MOH           7496 ****               0 ****  **** 
   1200  MOH           7502 ****               0 ****  **** 
   1201  MOH           7508 ****               0 ****  **** 
   1202  MOH           7514 ****               0 ****  **** 
   1203  MOH           7520 ****               0 ****  **** 
   1204  MOH           7526 ****               0 ****  **** 
   1205  MOH           7532 ****               0 ****  **** 
   1206  MOH           7538 ****               0 ****  **** 
   1207  MOH           7544 ****               0 ****  **** 
   1208  MOH           7550 ****               0 ****  **** 
   1209  MOH           7556 ****               0 ****  **** 
   1210  MOH           7562 ****               0 ****  **** 
   1211  MOH           7568 ****               0 ****  **** 
   1212  MOH           7574 ****               0 ****  **** 
   1213  MOH           7580 ****               0 ****  **** 
   1214  MOH           7586 ****               0 ****  **** 
   1215  MOH           7592 ****               0 ****  **** 
   1216  MOH           7598 ****               0 ****  **** 
   1217  MOH           7604 ****               0 ****  **** 
   1218  MOH           7610 ****               0 ****  **** 
   1219  MOH           7616 ****               0 ****  **** 
   1220  MOH           7622 ****               0 ****  **** 
   1221  MOH           7628 ****               0 ****  **** 
   1222  MOH           7634 ****               0 ****  **** 
   1223  MOH           7640 ****               0 ****  **** 
   1224  MOH           7646 ****               0 ****  **** 
   1225  MOH           7652 ****               0 ****  **** 
   1226  MOH           7658 ****               0 ****  **** 
   1227  MOH           7664 ****               0 ****  **** 
   1228  MOH           7670 ****               0 ****  **** 
   1229  MOH           7676 ****               0 ****  **** 
   1230  MOH           7682 ****               0 ****  **** 
   1231  MOH           7688 ****               0 ****  **** 
   1232  MOH           7694 ****               0 ****  **** 
   1233  MOH           7700 ****               0 ****  **** 
   1234  MOH           7706 ****               0 ****  **** 
   1235  MOH           7712 ****               0 ****  **** 
   1236  MOH           7718 ****               0 ****  **** 
   1237  MOH           7724 ****               0 ****  **** 
   1238  MOH           7730 ****               0 ****  **** 
   1239  MOH           7736 ****               0 ****  **** 
   1240  MOH           7742 ****               0 ****  **** 
   1241  MOH           7748 ****               0 ****  **** 
   1242  MOH           7754 ****               0 ****  **** 
   1243  MOH           7760 ****               0 ****  **** 
   1244  MOH           7766 ****               0 ****  **** 
   1245  MOH           7772 ****               0 ****  **** 
   1246  MOH           7778 ****               0 ****  **** 
   1247  MOH           7784 ****               0 ****  **** 
   1248  MOH           7790 ****               0 ****  **** 
   1249  MOH           7796 ****               0 ****  **** 
   1250  MOH           7802 ****               0 ****  **** 
   1251  MOH           7808 ****               0 ****  **** 
   1252  MOH           7814 ****               0 ****  **** 
   1253  MOH           7820 ****               0 ****  **** 
   1254  MOH           7826 ****               0 ****  **** 
   1255  MOH           7832 ****               0 ****  **** 
   1256  MOH           7838 ****               0 ****  **** 
   1257  MOH           7844 ****               0 ****  **** 
   1258  MOH           7850 ****               0 ****  **** 
   1259  MOH           7856 ****               0 ****  **** 
   1260  MOH           7862 ****               0 ****  **** 
   1261  MOH           7868 ****               0 ****  **** 
   1262  MOH           7874 ****               0 ****  **** 
   1263  MOH           7880 ****               0 ****  **** 
   1264  MOH           7886 ****               0 ****  **** 
   1265  MOH           7892 ****               0 ****  **** 
   1266  MOH           7898 ****               0 ****  **** 
   1267  MOH           7904 ****               0 ****  **** 
   1268  MOH           7910 ****               0 ****  **** 
   1269  MOH           7916 ****               0 ****  **** 
   1270  MOH           7922 ****               0 ****  **** 
   1271  MOH           7928 ****               0 ****  **** 
   1272  MOH           7934 ****               0 ****  **** 
   1273  MOH           7940 ****               0 ****  **** 
   1274  MOH           7946 ****               0 ****  **** 
   1275  MOH           7952 ****               0 ****  **** 
   1276  MOH           7958 ****               0 ****  **** 
   1277  MOH           7964 ****               0 ****  **** 
   1278  MOH           7970 ****               0 ****  **** 
   1279  MOH           7976 ****               0 ****  **** 
   1280  MOH           7982 ****               0 ****  **** 
   1281  MOH           7988 ****               0 ****  **** 
   1282  MOH           7994 ****               0 ****  **** 
   1283  MOH           8000 ****               0 ****  **** 
   1284  MOH           8006 ****               0 ****  **** 
   1285  MOH           8012 ****               0 ****  **** 
   1286  MOH           8018 ****               0 ****  **** 
   1287  MOH           8024 ****               0 ****  **** 
   1288  MOH           8030 ****               0 ****  **** 
   1289  MOH           8036 ****               0 ****  **** 
   1290  MOH           8042 ****               0 ****  **** 
   1291  MOH           8048 ****               0 ****  **** 
   1292  MOH           8054 ****               0 ****  **** 
   1293  MOH           8060 ****               0 ****  **** 
   1294  MOH           8066 ****               0 ****  **** 
   1295  MOH           8072 ****               0 ****  **** 
   1296  MOH           8078 ****               0 ****  **** 
   1297  MOH           8084 ****               0 ****  **** 
   1298  MOH           8090 ****               0 ****  **** 
   1299  MOH           8096 ****               0 ****  **** 
   1300  MOH           8102 ****               0 ****  **** 
   1301  MOH           8108 ****               0 ****  **** 
   1302  MOH           8114 ****               0 ****  **** 
   1303  MOH           8120 ****               0 ****  **** 
   1304  MOH           8126 ****               0 ****  **** 
   1305  MOH           8132 ****               0 ****  **** 
   1306  MOH           8138 ****               0 ****  **** 
   1307  MOH           8144 ****               0 ****  **** 
   1308  MOH           8150 ****               0 ****  **** 
   1309  MOH           8156 ****               0 ****  **** 
   1310  MOH           8162 ****               0 ****  **** 
   1311  MOH           8168 ****               0 ****  **** 
   1312  MOH           8174 ****               0 ****  **** 
   1313  MOH           8180 ****               0 ****  **** 
   1314  MOH           8186 ****               0 ****  **** 
   1315  MOH           8192 ****               0 ****  **** 
   1316  MOH           8198 ****               0 ****  **** 
   1317  MOH           8204 ****               0 ****  **** 
   1318  MOH           8210 ****               0 ****  **** 
   1319  MOH           8216 ****               0 ****  **** 
   1320  MOH           8222 ****               0 ****  **** 
   1321  MOH           8228 ****               0 ****  **** 
   1322  MOH           8234 ****               0 ****  **** 
   1323  MOH           8240 ****               0 ****  **** 
   1324  MOH           8246 ****               0 ****  **** 
   1325  MOH           8252 ****               0 ****  **** 
   1326  MOH           8258 ****               0 ****  **** 
   1327  MOH           8264 ****               0 ****  **** 
   1328  MOH           8270 ****               0 ****  **** 
   1329  MOH           8276 ****               0 ****  **** 
   1330  MOH           8282 ****               0 ****  **** 
   1331  MOH           8288 ****               0 ****  **** 
   1332  MOH           8294 ****               0 ****  **** 
   1333  MOH           8300 ****               0 ****  **** 
   1334  MOH           8306 ****               0 ****  **** 
   1335  MOH           8312 ****               0 ****  **** 
   1336  MOH           8318 ****               0 ****  **** 
   1337  MOH           8324 ****               0 ****  **** 
   1338  MOH           8330 ****               0 ****  **** 
   1339  MOH           8336 ****               0 ****  **** 
   1340  MOH           8342 ****               0 ****  **** 
   1341  MOH           8348 ****               0 ****  **** 
   1342  MOH           8354 ****               0 ****  **** 
   1343  MOH           8360 ****               0 ****  **** 
   1344  MOH           8366 ****               0 ****  **** 
   1345  MOH           8372 ****               0 ****  **** 
   1346  MOH           8378 ****               0 ****  **** 
   1347  MOH           8384 ****               0 ****  **** 
   1348  MOH           8390 ****               0 ****  **** 
   1349  MOH           8396 ****               0 ****  **** 
   1350  MOH           8402 ****               0 ****  **** 
   1351  MOH           8408 ****               0 ****  **** 
   1352  MOH           8414 ****               0 ****  **** 
   1353  MOH           8420 ****               0 ****  **** 
   1354  MOH           8426 ****               0 ****  **** 
   1355  MOH           8432 ****               0 ****  **** 
   1356  MOH           8438 ****               0 ****  **** 
   1357  MOH           8444 ****               0 ****  **** 
   1358  MOH           8450 ****               0 ****  **** 
   1359  MOH           8456 ****               0 ****  **** 
   1360  MOH           8462 ****               0 ****  **** 
   1361  MOH           8468 ****               0 ****  **** 
   1362  MOH           8474 ****               0 ****  **** 
   1363  MOH           8480 ****               0 ****  **** 
   1364  MOH           8486 ****               0 ****  **** 
   1365  MOH           8492 ****               0 ****  **** 
   1366  MOH           8498 ****               0 ****  **** 
   1367  MOH           8504 ****               0 ****  **** 
   1368  MOH           8510 ****               0 ****  **** 
   1369  MOH           8516 ****               0 ****  **** 
   1370  MOH           8522 ****               0 ****  **** 
   1371  MOH           8528 ****               0 ****  **** 
   1372  MOH           8534 ****               0 ****  **** 
   1373  MOH           8540 ****               0 ****  **** 
   1374  MOH           8546 ****               0 ****  **** 
   1375  MOH           8552 ****               0 ****  **** 
   1376  MOH           8558 ****               0 ****  **** 
   1377  MOH           8564 ****               0 ****  **** 
   1378  MOH           8570 ****               0 ****  **** 
   1379  MOH           8576 ****               0 ****  **** 
   1380  MOH           8582 ****               0 ****  **** 
   1381  MOH           8588 ****               0 ****  **** 
   1382  MOH           8594 ****               0 ****  **** 
   1383  MOH           8600 ****               0 ****  **** 
   1384  MOH           8606 ****               0 ****  **** 
   1385  MOH           8612 ****               0 ****  **** 
   1386  MOH           8618 ****               0 ****  **** 
   1387  MOH           8624 ****               0 ****  **** 
   1388  MOH           8630 ****               0 ****  **** 
   1389  MOH           8636 ****               0 ****  **** 
   1390  MOH           8642 ****               0 ****  **** 
   1391  MOH           8648 ****               0 ****  **** 
   1392  MOH           8654 ****               0 ****  **** 
   1393  MOH           8660 ****               0 ****  **** 
   1394  MOH           8666 ****               0 ****  **** 
   1395  MOH           8672 ****               0 ****  **** 
   1396  MOH           8678 ****               0 ****  **** 
   1397  MOH           8684 ****               0 ****  **** 
   1398  MOH           8690 ****               0 ****  **** 
   1399  MOH           8696 ****               0 ****  **** 
   1400  MOH           8702 ****               0 ****  **** 
   1401  MOH           8708 ****               0 ****  **** 
   1402  MOH           8714 ****               0 ****  **** 
   1403  MOH           8720 ****               0 ****  **** 
   1404  MOH           8726 ****               0 ****  **** 
   1405  MOH           8732 ****               0 ****  **** 
   1406  MOH           8738 ****               0 ****  **** 
   1407  MOH           8744 ****               0 ****  **** 
   1408  MOH           8750 ****               0 ****  **** 
   1409  MOH           8756 ****               0 ****  **** 
   1410  MOH           8762 ****               0 ****  **** 
   1411  MOH           8768 ****               0 ****  **** 
   1412  MOH           8774 ****               0 ****  **** 
   1413  MOH           8780 ****               0 ****  **** 
   1414  MOH           8786 ****               0 ****  **** 
   1415  MOH           8792 ****               0 ****  **** 
   1416  MOH           8798 ****               0 ****  **** 
   1417  MOH           8804 ****               0 ****  **** 
   1418  MOH           8810 ****               0 ****  **** 
   1419  MOH           8816 ****               0 ****  **** 
   1420  MOH           8822 ****               0 ****  **** 
   1421  MOH           8828 ****               0 ****  **** 
   1422  MOH           8834 ****               0 ****  **** 
   1423  MOH           8840 ****               0 ****  **** 
   1424  MOH           8846 ****               0 ****  **** 
   1425  MOH           8852 ****               0 ****  **** 
   1426  MOH           8858 ****               0 ****  **** 
   1427  MOH           8864 ****               0 ****  **** 
   1428  MOH           8870 ****               0 ****  **** 
   1429  MOH           8876 ****               0 ****  **** 
   1430  MOH           8882 ****               0 ****  **** 
   1431  MOH           8888 ****               0 ****  **** 
   1432  MOH           8894 ****               0 ****  **** 
   1433  MOH           8900 ****               0 ****  **** 
   1434  MOH           8906 ****               0 ****  **** 
   1435  MOH           8912 ****               0 ****  **** 
   1436  MOH           8918 ****               0 ****  **** 
   1437  MOH           8924 ****               0 ****  **** 
   1438  MOH           8930 ****               0 ****  **** 
   1439  MOH           8936 ****               0 ****  **** 
   1440  MOH           8942 ****               0 ****  **** 
   1441  MOH           8948 ****               0 ****  **** 
   1442  MOH           8954 ****               0 ****  **** 
   1443  MOH           8960 ****               0 ****  **** 
   1444  MOH           8966 ****               0 ****  **** 
   1445  MOH           8972 ****               0 ****  **** 
   1446  MOH           8978 ****               0 ****  **** 
   1447  MOH           8984 ****               0 ****  **** 
   1448  MOH           8990 ****               0 ****  **** 
   1449  MOH           8996 ****               0 ****  **** 
   1450  MOH           9002 ****               0 ****  **** 
   1451  MOH           9008 ****               0 ****  **** 
   1452  MOH           9014 ****               0 ****  **** 
   1453  MOH           9020 ****               0 ****  **** 
   1454  MOH           9026 ****               0 ****  **** 
   1455  MOH           9032 ****               0 ****  **** 
   1456  MOH           9038 ****               0 ****  **** 
   1457  MOH           9044 ****               0 ****  **** 
   1458  MOH           9050 ****               0 ****  **** 
   1459  MOH           9056 ****               0 ****  **** 
   1460  MOH           9062 ****               0 ****  **** 
   1461  MOH           9068 ****               0 ****  **** 
   1462  MOH           9074 ****               0 ****  **** 
   1463  MOH           9080 ****               0 ****  **** 
   1464  MOH           9086 ****               0 ****  **** 
   1465  MOH           9092 ****               0 ****  **** 
   1466  MOH           9098 ****               0 ****  **** 
   1467  MOH           9104 ****               0 ****  **** 
   1468  MOH           9110 ****               0 ****  **** 
   1469  MOH           9116 ****               0 ****  **** 
   1470  MOH           9122 ****               0 ****  **** 
   1471  MOH           9128 ****               0 ****  **** 
   1472  MOH           9134 ****               0 ****  **** 
   1473  MOH           9140 ****               0 ****  **** 
   1474  MOH           9146 ****               0 ****  **** 
   1475  MOH           9152 ****               0 ****  **** 
   1476  MOH           9158 ****               0 ****  **** 
   1477  MOH           9164 ****               0 ****  **** 
   1478  MOH           9170 ****               0 ****  **** 
   1479  MOH           9176 ****               0 ****  **** 
   1480  MOH           9182 ****               0 ****  **** 
   1481  MOH           9188 ****               0 ****  **** 
   1482  MOH           9194 ****               0 ****  **** 
   1483  MOH           9200 ****               0 ****  **** 
   1484  MOH           9206 ****               0 ****  **** 
   1485  MOH           9212 ****               0 ****  **** 
   1486  MOH           9218 ****               0 ****  **** 
   1487  MOH           9224 ****               0 ****  **** 
   1488  MOH           9230 ****               0 ****  **** 
   1489  MOH           9236 ****               0 ****  **** 
   1490  MOH           9242 ****               0 ****  **** 
   1491  MOH           9248 ****               0 ****  **** 
   1492  MOH           9254 ****               0 ****  **** 
   1493  MOH           9260 ****               0 ****  **** 
   1494  MOH           9266 ****               0 ****  **** 
   1495  MOH           9272 ****               0 ****  **** 
   1496  MOH           9278 ****               0 ****  **** 
   1497  MOH           9284 ****               0 ****  **** 
   1498  MOH           9290 ****               0 ****  **** 
   1499  MOH           9296 ****               0 ****  **** 
   1500  MOH           9302 ****               0 ****  **** 
   1501  MOH           9308 ****               0 ****  **** 
   1502  MOH           9314 ****               0 ****  **** 
   1503  MOH           9320 ****               0 ****  **** 
   1504  MOH           9326 ****               0 ****  **** 
   1505  MOH           9332 ****               0 ****  **** 
   1506  MOH           9338 ****               0 ****  **** 
   1507  MOH           9344 ****               0 ****  **** 
   1508  MOH           9350 ****               0 ****  **** 
   1509  MOH           9356 ****               0 ****  **** 
   1510  MOH           9362 ****               0 ****  **** 
   1511  MOH           9368 ****               0 ****  **** 
   1512  MOH           9374 ****               0 ****  **** 
   1513  MOH           9380 ****               0 ****  **** 
   1514  MOH           9386 ****               0 ****  **** 
   1515  MOH           9392 ****               0 ****  **** 
   1516  MOH           9398 ****               0 ****  **** 
   1517  MOH           9404 ****               0 ****  **** 
   1518  MOH           9410 ****               0 ****  **** 
   1519  MOH           9416 ****               0 ****  **** 
   1520  MOH           9422 ****               0 ****  **** 
   1521  MOH           9428 ****               0 ****  **** 
   1522  MOH           9434 ****               0 ****  **** 
   1523  MOH           9440 ****               0 ****  **** 
   1524  MOH           9446 ****               0 ****  **** 
   1525  MOH           9452 ****               0 ****  **** 
   1526  MOH           9458 ****               0 ****  **** 
   1527  MOH           9464 ****               0 ****  **** 
   1528  MOH           9470 ****               0 ****  **** 
   1529  MOH           9476 ****               0 ****  **** 
   1530  MOH           9482 ****               0 ****  **** 
   1531  MOH           9488 ****               0 ****  **** 
   1532  MOH           9494 ****               0 ****  **** 
   1533  MOH           9500 ****               0 ****  **** 
   1534  MOH           9506 ****               0 ****  **** 
   1535  MOH           9512 ****               0 ****  **** 
   1536  MOH           9518 ****               0 ****  **** 
   1537  MOH           9524 ****               0 ****  **** 
   1538  MOH           9530 ****               0 ****  **** 
   1539  MOH           9536 ****               0 ****  **** 
   1540  MOH           9542 ****               0 ****  **** 
   1541  MOH           9548 ****               0 ****  **** 
   1542  MOH           9554 ****               0 ****  **** 
   1543  MOH           9560 ****               0 ****  **** 
   1544  MOH           9566 ****               0 ****  **** 
   1545  MOH           9572 ****               0 ****  **** 
   1546  MOH           9578 ****               0 ****  **** 
   1547  MOH           9584 ****               0 ****  **** 
   1548  MOH           9590 ****               0 ****  **** 
   1549  MOH           9596 ****               0 ****  **** 
   1550  MOH           9602 ****               0 ****  **** 
   1551  MOH           9608 ****               0 ****  **** 
   1552  MOH           9614 ****               0 ****  **** 
   1553  MOH           9620 ****               0 ****  **** 
   1554  MOH           9626 ****               0 ****  **** 
   1555  MOH           9632 ****               0 ****  **** 
   1556  MOH           9638 ****               0 ****  **** 
   1557  MOH           9644 ****               0 ****  **** 
   1558  MOH           9650 ****               0 ****  **** 
   1559  MOH           9656 ****               0 ****  **** 
   1560  MOH           9662 ****               0 ****  **** 
   1561  MOH           9668 ****               0 ****  **** 
   1562  MOH           9674 ****               0 ****  **** 
   1563  MOH           9680 ****               0 ****  **** 
   1564  MOH           9686 ****               0 ****  **** 
   1565  MOH           9692 ****               0 ****  **** 
   1566  MOH           9698 ****               0 ****  **** 
   1567  MOH           9704 ****               0 ****  **** 
   1568  MOH           9710 ****               0 ****  **** 
   1569  MOH           9716 ****               0 ****  **** 
   1570  MOH           9722 ****               0 ****  **** 
   1571  MOH           9728 ****               0 ****  **** 
   1572  MOH           9734 ****               0 ****  **** 
   1573  MOH           9740 ****               0 ****  **** 
   1574  MOH           9746 ****               0 ****  **** 
   1575  MOH           9752 ****               0 ****  **** 
   1576  MOH           9758 ****               0 ****  **** 
   1577  MOH           9764 ****               0 ****  **** 
   1578  MOH           9770 ****               0 ****  **** 
   1579  MOH           9776 ****               0 ****  **** 
   1580  MOH           9782 ****               0 ****  **** 
   1581  MOH           9788 ****               0 ****  **** 
   1582  MOH           9794 ****               0 ****  **** 
   1583  MOH           9800 ****               0 ****  **** 
   1584  MOH           9806 ****               0 ****  **** 
   1585  MOH           9812 ****               0 ****  **** 
   1586  MOH           9818 ****               0 ****  **** 
   1587  MOH           9824 ****               0 ****  **** 
   1588  MOH           9830 ****               0 ****  **** 
   1589  MOH           9836 ****               0 ****  **** 
   1590  MOH           9842 ****               0 ****  **** 
   1591  MOH           9848 ****               0 ****  **** 
   1592  MOH           9854 ****               0 ****  **** 
   1593  MOH           9860 ****               0 ****  **** 
   1594  MOH           9866 ****               0 ****  **** 
   1595  MOH           9872 ****               0 ****  **** 
   1596  MOH           9878 ****               0 ****  **** 
   1597  MOH           9884 ****               0 ****  **** 
   1598  MOH           9890 ****               0 ****  **** 
   1599  MOH           9896 ****               0 ****  **** 
   1600  MOH           9902 ****               0 ****  **** 
   1601  MOH           9908 ****               0 ****  **** 
   1602  MOH           9914 ****               0 ****  **** 
   1603  MOH           9920 ****               0 ****  **** 
   1604  MOH           9926 ****               0 ****  **** 
   1605  MOH           9932 ****               0 ****  **** 
   1606  MOH           9938 ****               0 ****  **** 
   1607  MOH           9944 ****               0 ****  **** 
   1608  MOH           9950 ****               0 ****  **** 
   1609  MOH           9956 ****               0 ****  **** 
   1610  MOH           9962 ****               0 ****  **** 
   1611  MOH           9968 ****               0 ****  **** 
   1612  MOH           9974 ****               0 ****  **** 
   1613  MOH           9980 ****               0 ****  **** 
   1614  MOH           9986 ****               0 ****  **** 
   1615  MOH           9992 ****               0 ****  **** 
   1616  MOH           9998 ****               0 ****  **** 
   1617  MOH          10004 ****               0 ****  **** 
   1618  MOH          10010 ****               0 ****  **** 
   1619  MOH          10016 ****               0 ****  **** 
   1620  MOH          10022 ****               0 ****  **** 
   1621  MOH          10028 ****               0 ****  **** 
   1622  MOH          10034 ****               0 ****  **** 
   1623  MOH          10040 ****               0 ****  **** 
   1624  MOH          10046 ****               0 ****  **** 
   1625  MOH          10052 ****               0 ****  **** 
   1626  MOH          10058 ****               0 ****  **** 
   1627  MOH          10064 ****               0 ****  **** 
   1628  MOH          10070 ****               0 ****  **** 
   1629  MOH          10076 ****               0 ****  **** 
   1630  MOH          10082 ****               0 ****  **** 
   1631  MOH          10088 ****               0 ****  **** 
   1632  MOH          10094 ****               0 ****  **** 
   1633  MOH          10100 ****               0 ****  **** 
   1634  MOH          10106 ****               0 ****  **** 
   1635  MOH          10112 ****               0 ****  **** 
   1636  MOH          10118 ****               0 ****  **** 
   1637  MOH          10124 ****               0 ****  **** 
   1638  MOH          10130 ****               0 ****  **** 
   1639  MOH          10136 ****               0 ****  **** 
   1640  MOH          10142 ****               0 ****  **** 
   1641  MOH          10148 ****               0 ****  **** 
   1642  MOH          10154 ****               0 ****  **** 
   1643  MOH          10160 ****               0 ****  **** 
   1644  MOH          10166 ****               0 ****  **** 
   1645  MOH          10172 ****               0 ****  **** 
   1646  MOH          10178 ****               0 ****  **** 
   1647  MOH          10184 ****               0 ****  **** 
   1648  MOH          10190 ****               0 ****  **** 
   1649  MOH          10196 ****               0 ****  **** 
   1650  MOH          10202 ****               0 ****  **** 
   1651  MOH          10208 ****               0 ****  **** 
   1652  MOH          10214 ****               0 ****  **** 
   1653  MOH          10220 ****               0 ****  **** 
   1654  MOH          10226 ****               0 ****  **** 
   1655  MOH          10232 ****               0 ****  **** 
   1656  MOH          10238 ****               0 ****  **** 
   1657  MOH          10244 ****               0 ****  **** 
   1658  MOH          10250 ****               0 ****  **** 
   1659  MOH          10256 ****               0 ****  **** 
   1660  MOH          10262 ****               0 ****  **** 
   1661  MOH          10268 ****               0 ****  **** 
   1662  MOH          10274 ****               0 ****  **** 
   1663  MOH          10280 ****               0 ****  **** 
   1664  MOH          10286 ****               0 ****  **** 
   1665  MOH          10292 ****               0 ****  **** 
   1666  MOH          10298 ****               0 ****  **** 
   1667  MOH          10304 ****               0 ****  **** 
   1668  MOH          10310 ****               0 ****  **** 
   1669  MOH          10316 ****               0 ****  **** 
   1670  MOH          10322 ****               0 ****  **** 
   1671  MOH          10328 ****               0 ****  **** 
   1672  MOH          10334 ****               0 ****  **** 
   1673  MOH          10340 ****               0 ****  **** 
   1674  MOH          10346 ****               0 ****  **** 
   1675  MOH          10352 ****               0 ****  **** 
   1676  MOH          10358 ****               0 ****  **** 
   1677  MOH          10364 ****               0 ****  **** 
   1678  MOH          10370 ****               0 ****  **** 
   1679  MOH          10376 ****               0 ****  **** 
   1680  MOH          10382 ****               0 ****  **** 
   1681  MOH          10388 ****               0 ****  **** 
   1682  MOH          10394 ****               0 ****  **** 
   1683  MOH          10400 ****               0 ****  **** 
   1684  MOH          10406 ****               0 ****  **** 
   1685  MOH          10412 ****               0 ****  **** 
   1686  MOH          10418 ****               0 ****  **** 
   1687  MOH          10424 ****               0 ****  **** 
   1688  MOH          10430 ****               0 ****  **** 
   1689  MOH          10436 ****               0 ****  **** 
   1690  MOH          10442 ****               0 ****  **** 
   1691  MOH          10448 ****               0 ****  **** 
   1692  MOH          10454 ****               0 ****  **** 
   1693  MOH          10460 ****               0 ****  **** 
   1694  MOH          10466 ****               0 ****  **** 
   1695  MOH          10472 ****               0 ****  **** 
   1696  MOH          10478 ****               0 ****  **** 
   1697  MOH          10484 ****               0 ****  **** 
   1698  MOH          10490 ****               0 ****  **** 
   1699  MOH          10496 ****               0 ****  **** 
   1700  MOH          10502 ****               0 ****  **** 
   1701  MOH          10508 ****               0 ****  **** 
   1702  MOH          10514 ****               0 ****  **** 
   1703  MOH          10520 ****               0 ****  **** 
   1704  MOH          10526 ****               0 ****  **** 
   1705  MOH          10532 ****               0 ****  **** 
   1706  MOH          10538 ****               0 ****  **** 
   1707  MOH          10544 ****               0 ****  **** 
   1708  MOH          10550 ****               0 ****  **** 
   1709  MOH          10556 ****               0 ****  **** 
   1710  MOH          10562 ****               0 ****  **** 
   1711  MOH          10568 ****               0 ****  **** 
   1712  MOH          10574 ****               0 ****  **** 
   1713  MOH          10580 ****               0 ****  **** 
   1714  MOH          10586 ****               0 ****  **** 
   1715  MOH          10592 ****               0 ****  **** 
   1716  MOH          10598 ****               0 ****  **** 
   1717  MOH          10604 ****               0 ****  **** 
   1718  MOH          10610 ****               0 ****  **** 
   1719  MOH          10616 ****               0 ****  **** 
   1720  MOH          10622 ****               0 ****  **** 
   1721  MOH          10628 ****               0 ****  **** 
   1722  MOH          10634 ****               0 ****  **** 
   1723  MOH          10640 ****               0 ****  **** 
   1724  MOH          10646 ****               0 ****  **** 
   1725  MOH          10652 ****               0 ****  **** 
   1726  MOH          10658 ****               0 ****  **** 
   1727  MOH          10664 ****               0 ****  **** 
   1728  MOH          10670 ****               0 ****  **** 
   1729  MOH          10676 ****               0 ****  **** 
   1730  MOH          10682 ****               0 ****  **** 
   1731  MOH          10688 ****               0 ****  **** 
   1732  MOH          10694 ****               0 ****  **** 
   1733  MOH          10700 ****               0 ****  **** 
   1734  MOH          10706 ****               0 ****  **** 
   1735  MOH          10712 ****               0 ****  **** 
   1736  MOH          10718 ****               0 ****  **** 
   1737  MOH          10724 ****               0 ****  **** 
   1738  MOH          10730 ****               0 ****  **** 
   1739  MOH          10736 ****               0 ****  **** 
   1740  MOH          10742 ****               0 ****  **** 
   1741  MOH          10748 ****               0 ****  **** 
   1742  MOH          10754 ****               0 ****  **** 
   1743  MOH          10760 ****               0 ****  **** 
   1744  MOH          10766 ****               0 ****  **** 
   1745  MOH          10772 ****               0 ****  **** 
   1746  MOH          10778 ****               0 ****  **** 
   1747  MOH          10784 ****               0 ****  **** 
   1748  MOH          10790 ****               0 ****  **** 
   1749  MOH          10796 ****               0 ****  **** 
   1750  MOH          10802 ****               0 ****  **** 
   1751  MOH          10808 ****               0 ****  **** 
   1752  MOH          10814 ****               0 ****  **** 
   1753  MOH          10820 ****               0 ****  **** 
   1754  MOH          10826 ****               0 ****  **** 
   1755  MOH          10832 ****               0 ****  **** 
   1756  MOH          10838 ****               0 ****  **** 
   1757  MOH          10844 ****               0 ****  **** 
   1758  MOH          10850 ****               0 ****  **** 
   1759  MOH          10856 ****               0 ****  **** 
   1760  MOH          10862 ****               0 ****  **** 
   1761  MOH          10868 ****               0 ****  **** 
   1762  MOH          10874 ****               0 ****  **** 
   1763  MOH          10880 ****               0 ****  **** 
   1764  MOH          10886 ****               0 ****  **** 
   1765  MOH          10892 ****               0 ****  **** 
   1766  MOH          10898 ****               0 ****  **** 
   1767  MOH          10904 ****               0 ****  **** 
   1768  MOH          10910 ****               0 ****  **** 
   1769  MOH          10916 ****               0 ****  **** 
   1770  MOH          10922 ****               0 ****  **** 
   1771  MOH          10928 ****               0 ****  **** 
   1772  MOH          10934 ****               0 ****  **** 
   1773  MOH          10940 ****               0 ****  **** 
   1774  MOH          10946 ****               0 ****  **** 
   1775  MOH          10952 ****               0 ****  **** 
   1776  MOH          10958 ****               0 ****  **** 
   1777  MOH          10964 ****               0 ****  **** 
   1778  MOH          10970 ****               0 ****  **** 
   1779  MOH          10976 ****               0 ****  **** 
   1780  MOH          10982 ****               0 ****  **** 
   1781  MOH          10988 ****               0 ****  **** 
   1782  MOH          10994 ****               0 ****  **** 
   1783  MOH          11000 ****               0 ****  **** 
   1784  MOH          11006 ****               0 ****  **** 
   1785  MOH          11012 ****               0 ****  **** 
   1786  MOH          11018 ****               0 ****  **** 
   1787  MOH          11024 ****               0 ****  **** 
   1788  MOH          11030 ****               0 ****  **** 
   1789  MOH          11036 ****               0 ****  **** 
   1790  MOH          11042 ****               0 ****  **** 
   1791  MOH          11048 ****               0 ****  **** 
   1792  MOH          11054 ****               0 ****  **** 
   1793  MOH          11060 ****               0 ****  **** 
   1794  MOH          11066 ****               0 ****  **** 
   1795  MOH          11072 ****               0 ****  **** 
   1796  MOH          11078 ****               0 ****  **** 
   1797  MOH          11084 ****               0 ****  **** 
   1798  MOH          11090 ****               0 ****  **** 
   1799  MOH          11096 ****               0 ****  **** 
   1800  MOH          11102 ****               0 ****  **** 
   1801  MOH          11108 ****               0 ****  **** 
   1802  MOH          11114 ****               0 ****  **** 
   1803  MOH          11120 ****               0 ****  **** 
   1804  MOH          11126 ****               0 ****  **** 
   1805  MOH          11132 ****               0 ****  **** 
   1806  MOH          11138 ****               0 ****  **** 
   1807  MOH          11144 ****               0 ****  **** 
   1808  MOH          11150 ****               0 ****  **** 
   1809  MOH          11156 ****               0 ****  **** 
   1810  MOH          11162 ****               0 ****  **** 
   1811  MOH          11168 ****               0 ****  **** 
   1812  MOH          11174 ****               0 ****  **** 
   1813  MOH          11180 ****               0 ****  **** 
   1814  MOH          11186 ****               0 ****  **** 
   1815  MOH          11192 ****               0 ****  **** 
   1816  MOH          11198 ****               0 ****  **** 
   1817  MOH          11204 ****               0 ****  **** 
   1818  MOH          11210 ****               0 ****  **** 
   1819  MOH          11216 ****               0 ****  **** 
   1820  MOH          11222 ****               0 ****  **** 
   1821  MOH          11228 ****               0 ****  **** 
   1822  MOH          11234 ****               0 ****  **** 
   1823  MOH          11240 ****               0 ****  **** 
   1824  MOH          11246 ****               0 ****  **** 
   1825  MOH          11252 ****               0 ****  **** 
   1826  MOH          11258 ****               0 ****  **** 
   1827  MOH          11264 ****               0 ****  **** 
   1828  MOH          11270 ****               0 ****  **** 
   1829  MOH          11276 ****               0 ****  **** 
   1830  MOH          11282 ****               0 ****  **** 
   1831  MOH          11288 ****               0 ****  **** 
   1832  MOH          11294 ****               0 ****  **** 
   1833  MOH          11300 ****               0 ****  **** 
   1834  MOH          11306 ****               0 ****  **** 
   1835  MOH          11312 ****               0 ****  **** 
   1836  MOH          11318 ****               0 ****  **** 
   1837  MOH          11324 ****               0 ****  **** 
   1838  MOH          11330 ****               0 ****  **** 
   1839  MOH          11336 ****               0 ****  **** 
   1840  MOH          11342 ****               0 ****  **** 
   1841  MOH          11348 ****               0 ****  **** 
   1842  MOH          11354 ****               0 ****  **** 
   1843  MOH          11360 ****               0 ****  **** 
   1844  MOH          11366 ****               0 ****  **** 
   1845  MOH          11372 ****               0 ****  **** 
   1846  MOH          11378 ****               0 ****  **** 
   1847  MOH          11384 ****               0 ****  **** 
   1848  MOH          11390 ****               0 ****  **** 
   1849  MOH          11396 ****               0 ****  **** 
   1850  MOH          11402 ****               0 ****  **** 
   1851  MOH          11408 ****               0 ****  **** 
   1852  MOH          11414 ****               0 ****  **** 
   1853  MOH          11420 ****               0 ****  **** 
   1854  MOH          11426 ****               0 ****  **** 
   1855  MOH          11432 ****               0 ****  **** 
   1856  MOH          11438 ****               0 ****  **** 
   1857  MOH          11444 ****               0 ****  **** 
   1858  MOH          11450 ****               0 ****  **** 
   1859  MOH          11456 ****               0 ****  **** 
   1860  MOH          11462 ****               0 ****  **** 
   1861  MOH          11468 ****               0 ****  **** 
   1862  MOH          11474 ****               0 ****  **** 
   1863  MOH          11480 ****               0 ****  **** 
   1864  MOH          11486 ****               0 ****  **** 
   1865  MOH          11492 ****               0 ****  **** 
   1866  MOH          11498 ****               0 ****  **** 
   1867  MOH          11504 ****               0 ****  **** 
   1868  MOH          11510 ****               0 ****  **** 
   1869  MOH          11516 ****               0 ****  **** 
   1870  MOH          11522 ****               0 ****  **** 
   1871  MOH          11528 ****               0 ****  **** 
   1872  MOH          11534 ****               0 ****  **** 
   1873  MOH          11540 ****               0 ****  **** 
   1874  MOH          11546 ****               0 ****  **** 
   1875  MOH          11552 ****               0 ****  **** 
   1876  MOH          11558 ****               0 ****  **** 
   1877  MOH          11564 ****               0 ****  **** 
   1878  MOH          11570 ****               0 ****  **** 
   1879  MOH          11576 ****               0 ****  **** 
   1880  MOH          11582 ****               0 ****  **** 
   1881  MOH          11588 ****               0 ****  **** 
   1882  MOH          11594 ****               0 ****  **** 
   1883  MOH          11600 ****               0 ****  **** 
   1884  MOH          11606 ****               0 ****  **** 
   1885  MOH          11612 ****               0 ****  **** 
   1886  MOH          11618 ****               0 ****  **** 
   1887  MOH          11624 ****               0 ****  **** 
   1888  MOH          11630 ****               0 ****  **** 
   1889  MOH          11636 ****               0 ****  **** 
   1890  MOH          11642 ****               0 ****  **** 
   1891  MOH          11648 ****               0 ****  **** 
   1892  MOH          11654 ****               0 ****  **** 
   1893  MOH          11660 ****               0 ****  **** 
   1894  MOH          11666 ****               0 ****  **** 
   1895  MOH          11672 ****               0 ****  **** 
   1896  MOH          11678 ****               0 ****  **** 
   1897  MOH          11684 ****               0 ****  **** 
   1898  MOH          11690 ****               0 ****  **** 
   1899  MOH          11696 ****               0 ****  **** 
   1900  MOH          11702 ****               0 ****  **** 
   1901  MOH          11708 ****               0 ****  **** 
   1902  MOH          11714 ****               0 ****  **** 
   1903  MOH          11720 ****               0 ****  **** 
   1904  MOH          11726 ****               0 ****  **** 
   1905  MOH          11732 ****               0 ****  **** 
   1906  MOH          11738 ****               0 ****  **** 
   1907  MOH          11744 ****               0 ****  **** 
   1908  MOH          11750 ****               0 ****  **** 
   1909  MOH          11756 ****               0 ****  **** 
   1910  MOH          11762 ****               0 ****  **** 
   1911  MOH          11768 ****               0 ****  **** 
   1912  MOH          11774 ****               0 ****  **** 
   1913  MOH          11780 ****               0 ****  **** 
   1914  MOH          11786 ****               0 ****  **** 
   1915  MOH          11792 ****               0 ****  **** 
   1916  MOH          11798 ****               0 ****  **** 
   1917  MOH          11804 ****               0 ****  **** 
   1918  MOH          11810 ****               0 ****  **** 
   1919  MOH          11816 ****               0 ****  **** 
   1920  MOH          11822 ****               0 ****  **** 
   1921  MOH          11828 ****               0 ****  **** 
   1922  MOH          11834 ****               0 ****  **** 
   1923  MOH          11840 ****               0 ****  **** 
   1924  MOH          11846 ****               0 ****  **** 
   1925  MOH          11852 ****               0 ****  **** 
   1926  MOH          11858 ****               0 ****  **** 
   1927  MOH          11864 ****               0 ****  **** 
   1928  MOH          11870 ****               0 ****  **** 
   1929  MOH          11876 ****               0 ****  **** 
   1930  MOH          11882 ****               0 ****  **** 
   1931  MOH          11888 ****               0 ****  **** 
   1932  MOH          11894 ****               0 ****  **** 
   1933  MOH          11900 ****               0 ****  **** 
   1934  MOH          11906 ****               0 ****  **** 
   1935  MOH          11912 ****               0 ****  **** 
   1936  MOH          11918 ****               0 ****  **** 
   1937  MOH          11924 ****               0 ****  **** 
   1938  MOH          11930 ****               0 ****  **** 
   1939  MOH          11936 ****               0 ****  **** 
   1940  MOH          11942 ****               0 ****  **** 
   1941  MOH          11948 ****               0 ****  **** 
   1942  MOH          11954 ****               0 ****  **** 
   1943  MOH          11960 ****               0 ****  **** 
   1944  MOH          11966 ****               0 ****  **** 
   1945  MOH          11972 ****               0 ****  **** 
   1946  MOH          11978 ****               0 ****  **** 
   1947  MOH          11984 ****               0 ****  **** 
   1948  MOH          11990 ****               0 ****  **** 
   1949  MOH          11996 ****               0 ****  **** 
   1950  MOH          12002 ****               0 ****  **** 
   1951  MOH          12008 ****               0 ****  **** 
   1952  MOH          12014 ****               0 ****  **** 
   1953  MOH          12020 ****               0 ****  **** 
   1954  MOH          12026 ****               0 ****  **** 
   1955  MOH          12032 ****               0 ****  **** 
   1956  MOH          12038 ****               0 ****  **** 
   1957  MOH          12044 ****               0 ****  **** 
   1958  MOH          12050 ****               0 ****  **** 
   1959  MOH          12056 ****               0 ****  **** 
   1960  MOH          12062 ****               0 ****  **** 
   1961  MOH          12068 ****               0 ****  **** 
   1962  MOH          12074 ****               0 ****  **** 
   1963  MOH          12080 ****               0 ****  **** 
   1964  MOH          12086 ****               0 ****  **** 
   1965  MOH          12092 ****               0 ****  **** 
   1966  MOH          12098 ****               0 ****  **** 
   1967  MOH          12104 ****               0 ****  **** 
   1968  MOH          12110 ****               0 ****  **** 
   1969  MOH          12116 ****               0 ****  **** 
   1970  MOH          12122 ****               0 ****  **** 
   1971  MOH          12128 ****               0 ****  **** 
   1972  MOH          12134 ****               0 ****  **** 
   1973  MOH          12140 ****               0 ****  **** 
   1974  MOH          12146 ****               0 ****  **** 
   1975  MOH          12152 ****               0 ****  **** 
   1976  MOH          12158 ****               0 ****  **** 
   1977  MOH          12164 ****               0 ****  **** 
   1978  MOH          12170 ****               0 ****  **** 
   1979  MOH          12176 ****               0 ****  **** 
   1980  MOH          12182 ****               0 ****  **** 
   1981  MOH          12188 ****               0 ****  **** 
   1982  MOH          12194 ****               0 ****  **** 
   1983  MOH          12200 ****               0 ****  **** 
   1984  MOH          12206 ****               0 ****  **** 
   1985  MOH          12212 ****               0 ****  **** 
   1986  MOH          12218 ****               0 ****  **** 
   1987  MOH          12224 ****               0 ****  **** 
   1988  MOH          12230 ****               0 ****  **** 
   1989  MOH          12236 ****               0 ****  **** 
   1990  MOH          12242 ****               0 ****  **** 
   1991  MOH          12248 ****               0 ****  **** 
   1992  MOH          12254 ****               0 ****  **** 
   1993  MOH          12260 ****               0 ****  **** 
   1994  MOH          12266 ****               0 ****  **** 
   1995  MOH          12272 ****               0 ****  **** 
   1996  MOH          12278 ****               0 ****  **** 
   1997  MOH          12284 ****               0 ****  **** 
   1998  MOH          12290 ****               0 ****  **** 
   1999  MOH          12296 ****               0 ****  **** 
   2000  MOH          12302 ****               0 ****  **** 
   2001  MOH          12308 ****               0 ****  **** 
   2002  MOH          12314 ****               0 ****  **** 
   2003  MOH          12320 ****               0 ****  **** 
   2004  MOH          12326 ****               0 ****  **** 
   2005  MOH          12332 ****               0 ****  **** 
   2006  MOH          12338 ****               0 ****  **** 
   2007  MOH          12344 ****               0 ****  **** 
   2008  MOH          12350 ****               0 ****  **** 
   2009  MOH          12356 ****               0 ****  **** 
   2010  MOH          12362 ****               0 ****  **** 
   2011  MOH          12368 ****               0 ****  **** 
   2012  MOH          12374 ****               0 ****  **** 
   2013  MOH          12380 ****               0 ****  **** 
   2014  MOH          12386 ****               0 ****  **** 
   2015  MOH          12392 ****               0 ****  **** 
   2016  MOH          12398 ****               0 ****  **** 
   2017  MOH          12404 ****               0 ****  **** 
   2018  MOH          12410 ****               0 ****  **** 
   2019  MOH          12416 ****               0 ****  **** 
   2020  MOH          12422 ****               0 ****  **** 
   2021  MOH          12428 ****               0 ****  **** 
   2022  MOH          12434 ****               0 ****  **** 
   2023  MOH          12440 ****               0 ****  **** 
   2024  MOH          12446 ****               0 ****  **** 
   2025  MOH          12452 ****               0 ****  **** 
   2026  MOH          12458 ****               0 ****  **** 
   2027  MOH          12464 ****               0 ****  **** 
   2028  MOH          12470 ****               0 ****  **** 
   2029  MOH          12476 ****               0 ****  **** 
   2030  MOH          12482 ****               0 ****  **** 
   2031  MOH          12488 ****               0 ****  **** 
   2032  MOH          12494 ****               0 ****  **** 
   2033  MOH          12500 ****               0 ****  **** 
   2034  MOH          12506 ****               0 ****  **** 
   2035  MOH          12512 ****               0 ****  **** 
   2036  MOH          12518 ****               0 ****  **** 
   2037  MOH          12524 ****               0 ****  **** 
   2038  MOH          12530 ****               0 ****  **** 
   2039  MOH          12536 ****               0 ****  **** 
   2040  MOH          12542 ****               0 ****  **** 
   2041  MOH          12548 ****               0 ****  **** 
   2042  MOH          12554 ****               0 ****  **** 
   2043  MOH          12560 ****               0 ****  **** 
   2044  MOH          12566 ****               0 ****  **** 
   2045  MOH          12572 ****               0 ****  **** 
   2046  MOH          12578 ****               0 ****  **** 
   2047  MOH          12584 ****               0 ****  **** 
   2048  MOH          12590 ****               0 ****  **** 
   2049  MOH          12596 ****               0 ****  **** 
   2050  MOH          12602 ****               0 ****  **** 
   2051  MOH          12608 ****               0 ****  **** 
   2052  MOH          12614 ****               0 ****  **** 
   2053  MOH          12620 ****               0 ****  **** 
   2054  MOH          12626 ****               0 ****  **** 
   2055  MOH          12632 ****               0 ****  **** 
   2056  MOH          12638 ****               0 ****  **** 
   2057  MOH          12644 ****               0 ****  **** 
   2058  MOH          12650 ****               0 ****  **** 
   2059  MOH          12656 ****               0 ****  **** 
   2060  MOH          12662 ****               0 ****  **** 
   2061  MOH          12668 ****               0 ****  **** 
   2062  MOH          12674 ****               0 ****  **** 
   2063  MOH          12680 ****               0 ****  **** 
   2064  MOH          12686 ****               0 ****  **** 
   2065  MOH          12692 ****               0 ****  **** 
   2066  MOH          12698 ****               0 ****  **** 
   2067  MOH          12704 ****               0 ****  **** 
   2068  MOH          12710 ****               0 ****  **** 
   2069  MOH          12716 ****               0 ****  **** 
   2070  MOH          12722 ****               0 ****  **** 
   2071  MOH          12728 ****               0 ****  **** 
   2072  MOH          12734 ****               0 ****  **** 
   2073  MOH          12740 ****               0 ****  **** 
   2074  MOH          12746 ****               0 ****  **** 
   2075  MOH          12752 ****               0 ****  **** 
   2076  MOH          12758 ****               0 ****  **** 
   2077  MOH          12764 ****               0 ****  **** 
   2078  MOH          12770 ****               0 ****  **** 
   2079  MOH          12776 ****               0 ****  **** 
   2080  MOH          12782 ****               0 ****  **** 
   2081  MOH          12788 ****               0 ****  **** 
   2082  MOH          12794 ****               0 ****  **** 
   2083  MOH          12800 ****               0 ****  **** 
   2084  MOH          12806 ****               0 ****  **** 
   2085  MOH          12812 ****               0 ****  **** 
   2086  MOH          12818 ****               0 ****  **** 
   2087  MOH          12824 ****               0 ****  **** 
   2088  MOH          12830 ****               0 ****  **** 
   2089  MOH          12836 ****               0 ****  **** 
   2090  MOH          12842 ****               0 ****  **** 
   2091  MOH          12848 ****               0 ****  **** 
   2092  MOH          12854 ****               0 ****  **** 
   2093  MOH          12860 ****               0 ****  **** 
   2094  MOH          12866 ****               0 ****  **** 
   2095  MOH          12872 ****               0 ****  **** 
   2096  MOH          12878 ****               0 ****  **** 
   2097  MOH          12884 ****               0 ****  **** 
   2098  MOH          12890 ****               0 ****  **** 
   2099  MOH          12896 ****               0 ****  **** 
   2100  MOH          12902 ****               0 ****  **** 
   2101  MOH          12908 ****               0 ****  **** 
   2102  MOH          12914 ****               0 ****  **** 
   2103  MOH          12920 ****               0 ****  **** 
   2104  MOH          12926 ****               0 ****  **** 
   2105  MOH          12932 ****               0 ****  **** 
   2106  MOH          12938 ****               0 ****  **** 
   2107  MOH          12944 ****               0 ****  **** 
   2108  MOH          12950 ****               0 ****  **** 
   2109  MOH          12956 ****               0 ****  **** 
   2110  MOH          12962 ****               0 ****  **** 
   2111  MOH          12968 ****               0 ****  **** 
   2112  MOH          12974 ****               0 ****  **** 
   2113  MOH          12980 ****               0 ****  **** 
   2114  MOH          12986 ****               0 ****  **** 
   2115  MOH          12992 ****               0 ****  **** 
   2116  MOH          12998 ****               0 ****  **** 
   2117  MOH          13004 ****               0 ****  **** 
   2118  MOH          13010 ****               0 ****  **** 
   2119  MOH          13016 ****               0 ****  **** 
   2120  MOH          13022 ****               0 ****  **** 
   2121  MOH          13028 ****               0 ****  **** 
   2122  MOH          13034 ****               0 ****  **** 
   2123  MOH          13040 ****               0 ****  **** 
   2124  MOH          13046 ****               0 ****  **** 
   2125  MOH          13052 ****               0 ****  **** 
   2126  MOH          13058 ****               0 ****  **** 
   2127  MOH          13064 ****               0 ****  **** 
   2128  MOH          13070 ****               0 ****  **** 
   2129  MOH          13076 ****               0 ****  **** 
   2130  MOH          13082 ****               0 ****  **** 
   2131  MOH          13088 ****               0 ****  **** 
   2132  MOH          13094 ****               0 ****  **** 
   2133  MOH          13100 ****               0 ****  **** 
   2134  MOH          13106 ****               0 ****  **** 
   2135  MOH          13112 ****               0 ****  **** 
   2136  MOH          13118 ****               0 ****  **** 
   2137  MOH          13124 ****               0 ****  **** 
   2138  MOH          13130 ****               0 ****  **** 
   2139  MOH          13136 ****               0 ****  **** 
   2140  MOH          13142 ****               0 ****  **** 
   2141  MOH          13148 ****               0 ****  **** 
   2142  MOH          13154 ****               0 ****  **** 
   2143  MOH          13160 ****               0 ****  **** 
   2144  MOH          13166 ****               0 ****  **** 
   2145  MOH          13172 ****               0 ****  **** 
   2146  MOH          13178 ****               0 ****  **** 
   2147  MOH          13184 ****               0 ****  **** 
   2148  MOH          13190 ****               0 ****  **** 
   2149  MOH          13196 ****               0 ****  **** 
   2150  MOH          13202 ****               0 ****  **** 
   2151  MOH          13208 ****               0 ****  **** 
   2152  MOH          13214 ****               0 ****  **** 
   2153  MOH          13220 ****               0 ****  **** 
   2154  MOH          13226 ****               0 ****  **** 
   2155  MOH          13232 ****               0 ****  **** 
   2156  MOH          13238 ****               0 ****  **** 
   2157  MOH          13244 ****               0 ****  **** 
   2158  MOH          13250 ****               0 ****  **** 
   2159  MOH          13256 ****               0 ****  **** 
   2160  MOH          13262 ****               0 ****  **** 
   2161  MOH          13268 ****               0 ****  **** 
   2162  MOH          13274 ****               0 ****  **** 
   2163  MOH          13280 ****               0 ****  **** 
   2164  MOH          13286 ****               0 ****  **** 
   2165  MOH          13292 ****               0 ****  **** 
   2166  MOH          13298 ****               0 ****  **** 
   2167  MOH          13304 ****               0 ****  **** 
   2168  MOH          13310 ****               0 ****  **** 
   2169  MOH          13316 ****               0 ****  **** 
   2170  MOH          13322 ****               0 ****  **** 
   2171  MOH          13328 ****               0 ****  **** 
   2172  MOH          13334 ****               0 ****  **** 
   2173  MOH          13340 ****               0 ****  **** 
   2174  MOH          13346 ****               0 ****  **** 
   2175  MOH          13352 ****               0 ****  **** 
   2176  MOH          13358 ****               0 ****  **** 
   2177  MOH          13364 ****               0 ****  **** 
   2178  MOH          13370 ****               0 ****  **** 
   2179  MOH          13376 ****               0 ****  **** 
   2180  MOH          13382 ****               0 ****  **** 
   2181  MOH          13388 ****               0 ****  **** 
   2182  MOH          13394 ****               0 ****  **** 
   2183  MOH          13400 ****               0 ****  **** 
   2184  MOH          13406 ****               0 ****  **** 
   2185  MOH          13412 ****               0 ****  **** 
   2186  MOH          13418 ****               0 ****  **** 
   2187  MOH          13424 ****               0 ****  **** 
   2188  MOH          13430 ****               0 ****  **** 
   2189  MOH          13436 ****               0 ****  **** 
   2190  MOH          13442 ****               0 ****  **** 
   2191  MOH          13448 ****               0 ****  **** 
   2192  MOH          13454 ****               0 ****  **** 
   2193  MOH          13460 ****               0 ****  **** 
   2194  MOH          13466 ****               0 ****  **** 
   2195  MOH          13472 ****               0 ****  **** 
   2196  MOH          13478 ****               0 ****  **** 
   2197  MOH          13484 ****               0 ****  **** 
   2198  MOH          13490 ****               0 ****  **** 
   2199  MOH          13496 ****               0 ****  **** 
   2200  MOH          13502 ****               0 ****  **** 
   2201  MOH          13508 ****               0 ****  **** 
   2202  MOH          13514 ****               0 ****  **** 
   2203  MOH          13520 ****               0 ****  **** 
   2204  MOH          13526 ****               0 ****  **** 
   2205  MOH          13532 ****               0 ****  **** 
   2206  MOH          13538 ****               0 ****  **** 
   2207  MOH          13544 ****               0 ****  **** 
   2208  MOH          13550 ****               0 ****  **** 
   2209  MOH          13556 ****               0 ****  **** 
   2210  MOH          13562 ****               0 ****  **** 
   2211  MOH          13568 ****               0 ****  **** 
   2212  MOH          13574 ****               0 ****  **** 
   2213  MOH          13580 ****               0 ****  **** 
   2214  MOH          13586 ****               0 ****  **** 
   2215  MOH          13592 ****               0 ****  **** 
   2216  MOH          13598 ****               0 ****  **** 
   2217  MOH          13604 ****               0 ****  **** 
   2218  MOH          13610 ****               0 ****  **** 
   2219  MOH          13616 ****               0 ****  **** 
   2220  MOH          13622 ****               0 ****  **** 
   2221  MOH          13628 ****               0 ****  **** 
   2222  MOH          13634 ****               0 ****  **** 
   2223  MOH          13640 ****               0 ****  **** 
   2224  MOH          13646 ****               0 ****  **** 
   2225  MOH          13652 ****               0 ****  **** 
   2226  MOH          13658 ****               0 ****  **** 
   2227  MOH          13664 ****               0 ****  **** 
   2228  MOH          13670 ****               0 ****  **** 
   2229  MOH          13676 ****               0 ****  **** 
   2230  MOH          13682 ****               0 ****  **** 
   2231  MOH          13688 ****               0 ****  **** 
   2232  MOH          13694 ****               0 ****  **** 
   2233  MOH          13700 ****               0 ****  **** 
   2234  MOH          13706 ****               0 ****  **** 
   2235  MOH          13712 ****               0 ****  **** 
   2236  MOH          13718 ****               0 ****  **** 
   2237  MOH          13724 ****               0 ****  **** 
   2238  MOH          13730 ****               0 ****  **** 
   2239  MOH          13736 ****               0 ****  **** 
   2240  MOH          13742 ****               0 ****  **** 
   2241  MOH          13748 ****               0 ****  **** 
   2242  MOH          13754 ****               0 ****  **** 
   2243  MOH          13760 ****               0 ****  **** 
   2244  MOH          13766 ****               0 ****  **** 
   2245  MOH          13772 ****               0 ****  **** 
   2246  MOH          13778 ****               0 ****  **** 
   2247  MOH          13784 ****               0 ****  **** 
   2248  MOH          13790 ****               0 ****  **** 
   2249  MOH          13796 ****               0 ****  **** 
   2250  MOH          13802 ****               0 ****  **** 
   2251  MOH          13808 ****               0 ****  **** 
   2252  MOH          13814 ****               0 ****  **** 
   2253  MOH          13820 ****               0 ****  **** 
   2254  MOH          13826 ****               0 ****  **** 
   2255  MOH          13832 ****               0 ****  **** 
   2256  MOH          13838 ****               0 ****  **** 
   2257  MOH          13844 ****               0 ****  **** 
   2258  MOH          13850 ****               0 ****  **** 
   2259  MOH          13856 ****               0 ****  **** 
   2260  MOH          13862 ****               0 ****  **** 
   2261  MOH          13868 ****               0 ****  **** 
   2262  MOH          13874 ****               0 ****  **** 
   2263  MOH          13880 ****               0 ****  **** 
   2264  MOH          13886 ****               0 ****  **** 
   2265  MOH          13892 ****               0 ****  **** 
   2266  MOH          13898 ****               0 ****  **** 
   2267  MOH          13904 ****               0 ****  **** 
   2268  MOH          13910 ****               0 ****  **** 
   2269  MOH          13916 ****               0 ****  **** 
   2270  MOH          13922 ****               0 ****  **** 
   2271  MOH          13928 ****               0 ****  **** 
   2272  MOH          13934 ****               0 ****  **** 
   2273  MOH          13940 ****               0 ****  **** 
   2274  MOH          13946 ****               0 ****  **** 
   2275  MOH          13952 ****               0 ****  **** 
   2276  MOH          13958 ****               0 ****  **** 
   2277  MOH          13964 ****               0 ****  **** 
   2278  MOH          13970 ****               0 ****  **** 
   2279  MOH          13976 ****               0 ****  **** 
   2280  MOH          13982 ****               0 ****  **** 
   2281  MOH          13988 ****               0 ****  **** 
   2282  MOH          13994 ****               0 ****  **** 
   2283  MOH          14000 ****               0 ****  **** 
   2284  MOH          14006 ****               0 ****  **** 
   2285  MOH          14012 ****               0 ****  **** 
   2286  MOH          14018 ****               0 ****  **** 
   2287  MOH          14024 ****               0 ****  **** 
   2288  MOH          14030 ****               0 ****  **** 
   2289  MOH          14036 ****               0 ****  **** 
   2290  MOH          14042 ****               0 ****  **** 
   2291  MOH          14048 ****               0 ****  **** 
   2292  MOH          14054 ****               0 ****  **** 
   2293  MOH          14060 ****               0 ****  **** 
   2294  MOH          14066 ****               0 ****  **** 
   2295  MOH          14072 ****               0 ****  **** 
   2296  MOH          14078 ****               0 ****  **** 
   2297  MOH          14084 ****               0 ****  **** 
   2298  MOH          14090 ****               0 ****  **** 
   2299  MOH          14096 ****               0 ****  **** 
   2300  MOH          14102 ****               0 ****  **** 
   2301  MOH          14108 ****               0 ****  **** 
   2302  MOH          14114 ****               0 ****  **** 
   2303  MOH          14120 ****               0 ****  **** 
   2304  MOH          14126 ****               0 ****  **** 
   2305  MOH          14132 ****               0 ****  **** 
   2306  MOH          14138 ****               0 ****  **** 
   2307  MOH          14144 ****               0 ****  **** 
   2308  MOH          14150 ****               0 ****  **** 
   2309  MOH          14156 ****               0 ****  **** 
   2310  MOH          14162 ****               0 ****  **** 
   2311  MOH          14168 ****               0 ****  **** 
   2312  MOH          14174 ****               0 ****  **** 
   2313  MOH          14180 ****               0 ****  **** 
   2314  MOH          14186 ****               0 ****  **** 
   2315  MOH          14192 ****               0 ****  **** 
   2316  MOH          14198 ****               0 ****  **** 
   2317  MOH          14204 ****               0 ****  **** 
   2318  MOH          14210 ****               0 ****  **** 
   2319  MOH          14216 ****               0 ****  **** 
   2320  MOH          14222 ****               0 ****  **** 
   2321  MOH          14228 ****               0 ****  **** 
   2322  MOH          14234 ****               0 ****  **** 
   2323  MOH          14240 ****               0 ****  **** 
   2324  MOH          14246 ****               0 ****  **** 
   2325  MOH          14252 ****               0 ****  **** 
   2326  MOH          14258 ****               0 ****  **** 
   2327  MOH          14264 ****               0 ****  **** 
   2328  MOH          14270 ****               0 ****  **** 
   2329  MOH          14276 ****               0 ****  **** 
   2330  MOH          14282 ****               0 ****  **** 
   2331  MOH          14288 ****               0 ****  **** 
   2332  MOH          14294 ****               0 ****  **** 
   2333  MOH          14300 ****               0 ****  **** 
   2334  MOH          14306 ****               0 ****  **** 
   2335  MOH          14312 ****               0 ****  **** 
   2336  MOH          14318 ****               0 ****  **** 
   2337  MOH          14324 ****               0 ****  **** 
   2338  MOH          14330 ****               0 ****  **** 
   2339  MOH          14336 ****               0 ****  **** 
   2340  MOH          14342 ****               0 ****  **** 
   2341  MOH          14348 ****               0 ****  **** 
   2342  MOH          14354 ****               0 ****  **** 
   2343  MOH          14360 ****               0 ****  **** 
   2344  MOH          14366 ****               0 ****  **** 
   2345  MOH          14372 ****               0 ****  **** 
   2346  MOH          14378 ****               0 ****  **** 
   2347  MOH          14384 ****               0 ****  **** 
   2348  MOH          14390 ****               0 ****  **** 
   2349  MOH          14396 ****               0 ****  **** 
   2350  MOH          14402 ****               0 ****  **** 
   2351  MOH          14408 ****               0 ****  **** 
   2352  MOH          14414 ****               0 ****  **** 
   2353  MOH          14420 ****               0 ****  **** 
   2354  MOH          14426 ****               0 ****  **** 
   2355  MOH          14432 ****               0 ****  **** 
   2356  MOH          14438 ****               0 ****  **** 
   2357  MOH          14444 ****               0 ****  **** 
   2358  MOH          14450 ****               0 ****  **** 
   2359  MOH          14456 ****               0 ****  **** 
   2360  MOH          14462 ****               0 ****  **** 
   2361  MOH          14468 ****               0 ****  **** 
   2362  MOH          14474 ****               0 ****  **** 
   2363  MOH          14480 ****               0 ****  **** 
   2364  MOH          14486 ****               0 ****  **** 
   2365  MOH          14492 ****               0 ****  **** 
   2366  MOH          14498 ****               0 ****  **** 
   2367  MOH          14504 ****               0 ****  **** 
   2368  MOH          14510 ****               0 ****  **** 
   2369  MOH          14516 ****               0 ****  **** 
   2370  MOH          14522 ****               0 ****  **** 
   2371  MOH          14528 ****               0 ****  **** 
   2372  MOH          14534 ****               0 ****  **** 
   2373  MOH          14540 ****               0 ****  **** 
   2374  MOH          14546 ****               0 ****  **** 
   2375  MOH          14552 ****               0 ****  **** 
   2376  MOH          14558 ****               0 ****  **** 
   2377  MOH          14564 ****               0 ****  **** 
   2378  MOH          14570 ****               0 ****  **** 
   2379  MOH          14576 ****               0 ****  **** 
   2380  MOH          14582 ****               0 ****  **** 
   2381  MOH          14588 ****               0 ****  **** 
   2382  MOH          14594 ****               0 ****  **** 
   2383  MOH          14600 ****               0 ****  **** 
   2384  MOH          14606 ****               0 ****  **** 
   2385  MOH          14612 ****               0 ****  **** 
   2386  MOH          14618 ****               0 ****  **** 
   2387  MOH          14624 ****               0 ****  **** 
   2388  MOH          14630 ****               0 ****  **** 
   2389  MOH          14636 ****               0 ****  **** 
   2390  MOH          14642 ****               0 ****  **** 
   2391  MOH          14648 ****               0 ****  **** 
   2392  MOH          14654 ****               0 ****  **** 
   2393  MOH          14660 ****               0 ****  **** 
   2394  MOH          14666 ****               0 ****  **** 
   2395  MOH          14672 ****               0 ****  **** 
   2396  MOH          14678 ****               0 ****  **** 
   2397  MOH          14684 ****               0 ****  **** 
   2398  MOH          14690 ****               0 ****  **** 
   2399  MOH          14696 ****               0 ****  **** 
   2400  MOH          14702 ****               0 ****  **** 
   2401  MOH          14708 ****               0 ****  **** 
   2402  MOH          14714 ****               0 ****  **** 
   2403  MOH          14720 ****               0 ****  **** 
   2404  MOH          14726 ****               0 ****  **** 
   2405  MOH          14732 ****               0 ****  **** 
   2406  MOH          14738 ****               0 ****  **** 
   2407  MOH          14744 ****               0 ****  **** 
   2408  MOH          14750 ****               0 ****  **** 
   2409  MOH          14756 ****               0 ****  **** 
   2410  MOH          14762 ****               0 ****  **** 
   2411  MOH          14768 ****               0 ****  **** 
   2412  MOH          14774 ****               0 ****  **** 
   2413  MOH          14780 ****               0 ****  **** 
   2414  MOH          14786 ****               0 ****  **** 
   2415  MOH          14792 ****               0 ****  **** 
   2416  MOH          14798 ****               0 ****  **** 
   2417  MOH          14804 ****               0 ****  **** 
   2418  MOH          14810 ****               0 ****  **** 
   2419  MOH          14816 ****               0 ****  **** 
   2420  MOH          14822 ****               0 ****  **** 
   2421  MOH          14828 ****               0 ****  **** 
   2422  MOH          14834 ****               0 ****  **** 
   2423  MOH          14840 ****               0 ****  **** 
   2424  MOH          14846 ****               0 ****  **** 
   2425  MOH          14852 ****               0 ****  **** 
   2426  MOH          14858 ****               0 ****  **** 
   2427  MOH          14864 ****               0 ****  **** 
   2428  MOH          14870 ****               0 ****  **** 
   2429  MOH          14876 ****               0 ****  **** 
   2430  MOH          14882 ****               0 ****  **** 
   2431  MOH          14888 ****               0 ****  **** 
   2432  MOH          14894 ****               0 ****  **** 
   2433  MOH          14900 ****               0 ****  **** 
   2434  MOH          14906 ****               0 ****  **** 
   2435  MOH          14912 ****               0 ****  **** 
   2436  MOH          14918 ****               0 ****  **** 
   2437  MOH          14924 ****               0 ****  **** 
   2438  MOH          14930 ****               0 ****  **** 
   2439  MOH          14936 ****               0 ****  **** 
   2440  MOH          14942 ****               0 ****  **** 
   2441  MOH          14948 ****               0 ****  **** 
   2442  MOH          14954 ****               0 ****  **** 
   2443  MOH          14960 ****               0 ****  **** 
   2444  MOH          14966 ****               0 ****  **** 
   2445  MOH          14972 ****               0 ****  **** 
   2446  MOH          14978 ****               0 ****  **** 
   2447  MOH          14984 ****               0 ****  **** 
   2448  MOH          14990 ****               0 ****  **** 
   2449  MOH          14996 ****               0 ****  **** 
   2450  MOH          15002 ****               0 ****  **** 
   2451  MOH          15008 ****               0 ****  **** 
   2452  MOH          15014 ****               0 ****  **** 
   2453  MOH          15020 ****               0 ****  **** 
   2454  MOH          15026 ****               0 ****  **** 
   2455  MOH          15032 ****               0 ****  **** 
   2456  MOH          15038 ****               0 ****  **** 
   2457  MOH          15044 ****               0 ****  **** 
   2458  MOH          15050 ****               0 ****  **** 
   2459  MOH          15056 ****               0 ****  **** 
   2460  MOH          15062 ****               0 ****  **** 
   2461  MOH          15068 ****               0 ****  **** 
   2462  MOH          15074 ****               0 ****  **** 
   2463  MOH          15080 ****               0 ****  **** 
   2464  MOH          15086 ****               0 ****  **** 
   2465  MOH          15092 ****               0 ****  **** 
   2466  MOH          15098 ****               0 ****  **** 
   2467  MOH          15104 ****               0 ****  **** 
   2468  MOH          15110 ****               0 ****  **** 
   2469  MOH          15116 ****               0 ****  **** 
   2470  MOH          15122 ****               0 ****  **** 
   2471  MOH          15128 ****               0 ****  **** 
   2472  MOH          15134 ****               0 ****  **** 
   2473  MOH          15140 ****               0 ****  **** 
   2474  MOH          15146 ****               0 ****  **** 
   2475  MOH          15152 ****               0 ****  **** 
   2476  MOH          15158 ****               0 ****  **** 
   2477  MOH          15164 ****               0 ****  **** 
   2478  MOH          15170 ****               0 ****  **** 
   2479  MOH          15176 ****               0 ****  **** 
   2480  MOH          15182 ****               0 ****  **** 
   2481  MOH          15188 ****               0 ****  **** 
   2482  MOH          15194 ****               0 ****  **** 
   2483  MOH          15200 ****               0 ****  **** 
   2484  MOH          15206 ****               0 ****  **** 
   2485  MOH          15212 ****               0 ****  **** 
   2486  MOH          15218 ****               0 ****  **** 
   2487  MOH          15224 ****               0 ****  **** 
   2488  MOH          15230 ****               0 ****  **** 
   2489  MOH          15236 ****               0 ****  **** 
   2490  MOH          15242 ****               0 ****  **** 
   2491  MOH          15248 ****               0 ****  **** 
   2492  MOH          15254 ****               0 ****  **** 
   2493  MOH          15260 ****               0 ****  **** 
   2494  MOH          15266 ****               0 ****  **** 
   2495  MOH          15272 ****               0 ****  **** 
   2496  MOH          15278 ****               0 ****  **** 
   2497  MOH          15284 ****               0 ****  **** 
   2498  MOH          15290 ****               0 ****  **** 
   2499  MOH          15296 ****               0 ****  **** 
   2500  MOH          15302 ****               0 ****  **** 
   2501  MOH          15308 ****               0 ****  **** 
   2502  MOH          15314 ****               0 ****  **** 
   2503  MOH          15320 ****               0 ****  **** 
   2504  MOH          15326 ****               0 ****  **** 
   2505  MOH          15332 ****               0 ****  **** 
   2506  MOH          15338 ****               0 ****  **** 
   2507  MOH          15344 ****               0 ****  **** 
   2508  MOH          15350 ****               0 ****  **** 
   2509  MOH          15356 ****               0 ****  **** 
   2510  MOH          15362 ****               0 ****  **** 
   2511  MOH          15368 ****               0 ****  **** 
   2512  MOH          15374 ****               0 ****  **** 
   2513  MOH          15380 ****               0 ****  **** 
   2514  MOH          15386 ****               0 ****  **** 
   2515  MOH          15392 ****               0 ****  **** 
   2516  MOH          15398 ****               0 ****  **** 
   2517  MOH          15404 ****               0 ****  **** 
   2518  MOH          15410 ****               0 ****  **** 
   2519  MOH          15416 ****               0 ****  **** 
   2520  MOH          15422 ****               0 ****  **** 
   2521  MOH          15428 ****               0 ****  **** 
   2522  MOH          15434 ****               0 ****  **** 
   2523  MOH          15440 ****               0 ****  **** 
   2524  MOH          15446 ****               0 ****  **** 
   2525  MOH          15452 ****               0 ****  **** 
   2526  MOH          15458 ****               0 ****  **** 
   2527  MOH          15464 ****               0 ****  **** 
   2528  MOH          15470 ****               0 ****  **** 
   2529  MOH          15476 ****               0 ****  **** 
   2530  MOH          15482 ****               0 ****  **** 
   2531  MOH          15488 ****               0 ****  **** 
   2532  MOH          15494 ****               0 ****  **** 
   2533  MOH          15500 ****               0 ****  **** 
   2534  MOH          15506 ****               0 ****  **** 
   2535  MOH          15512 ****               0 ****  **** 
   2536  MOH          15518 ****               0 ****  **** 
   2537  MOH          15524 ****               0 ****  **** 
   2538  MOH          15530 ****               0 ****  **** 
   2539  MOH          15536 ****               0 ****  **** 
   2540  MOH          15542 ****               0 ****  **** 
   2541  MOH          15548 ****               0 ****  **** 
   2542  MOH          15554 ****               0 ****  **** 
   2543  MOH          15560 ****               0 ****  **** 
   2544  MOH          15566 ****               0 ****  **** 
   2545  MOH          15572 ****               0 ****  **** 
   2546  MOH          15578 ****               0 ****  **** 
   2547  MOH          15584 ****               0 ****  **** 
   2548  MOH          15590 ****               0 ****  **** 
   2549  MOH          15596 ****               0 ****  **** 
   2550  MOH          15602 ****               0 ****  **** 
   2551  MOH          15608 ****               0 ****  **** 
   2552  MOH          15614 ****               0 ****  **** 
   2553  MOH          15620 ****               0 ****  **** 
   2554  MOH          15626 ****               0 ****  **** 
   2555  MOH          15632 ****               0 ****  **** 
   2556  MOH          15638 ****               0 ****  **** 
   2557  MOH          15644 ****               0 ****  **** 
   2558  MOH          15650 ****               0 ****  **** 
   2559  MOH          15656 ****               0 ****  **** 
   2560  MOH          15662 ****               0 ****  **** 
   2561  MOH          15668 ****               0 ****  **** 
   2562  MOH          15674 ****               0 ****  **** 
   2563  MOH          15680 ****               0 ****  **** 
   2564  MOH          15686 ****               0 ****  **** 
   2565  MOH          15692 ****               0 ****  **** 
   2566  MOH          15698 ****               0 ****  **** 
   2567  MOH          15704 ****               0 ****  **** 
   2568  MOH          15710 ****               0 ****  **** 
   2569  MOH          15716 ****               0 ****  **** 
   2570  MOH          15722 ****               0 ****  **** 
   2571  MOH          15728 ****               0 ****  **** 
   2572  MOH          15734 ****               0 ****  **** 
   2573  MOH          15740 ****               0 ****  **** 
   2574  MOH          15746 ****               0 ****  **** 
   2575  MOH          15752 ****               0 ****  **** 
   2576  MOH          15758 ****               0 ****  **** 
   2577  MOH          15764 ****               0 ****  **** 
   2578  MOH          15770 ****               0 ****  **** 
   2579  MOH          15776 ****               0 ****  **** 
   2580  MOH          15782 ****               0 ****  **** 
   2581  MOH          15788 ****               0 ****  **** 
   2582  MOH          15794 ****               0 ****  **** 
   2583  MOH          15800 ****               0 ****  **** 
   2584  MOH          15806 ****               0 ****  **** 
   2585  MOH          15812 ****               0 ****  **** 
   2586  MOH          15818 ****               0 ****  **** 
   2587  MOH          15824 ****               0 ****  **** 
   2588  MOH          15830 ****               0 ****  **** 
   2589  MOH          15836 ****               0 ****  **** 
   2590  MOH          15842 ****               0 ****  **** 
   2591  MOH          15848 ****               0 ****  **** 
   2592  MOH          15854 ****               0 ****  **** 
   2593  MOH          15860 ****               0 ****  **** 
   2594  MOH          15866 ****               0 ****  **** 
   2595  MOH          15872 ****               0 ****  **** 
   2596  MOH          15878 ****               0 ****  **** 
   2597  MOH          15884 ****               0 ****  **** 
   2598  MOH          15890 ****               0 ****  **** 
   2599  MOH          15896 ****               0 ****  **** 
   2600  MOH          15902 ****               0 ****  **** 
   2601  MOH          15908 ****               0 ****  **** 
   2602  MOH          15914 ****               0 ****  **** 
   2603  MOH          15920 ****               0 ****  **** 
   2604  MOH          15926 ****               0 ****  **** 
