@<TRIPOS>MOLECULE
XAP
15199 12728  2482     0     1 
SMALL
USER_CHARGES
@<TRIPOS>ATOM
  1 O1     11.455980    6.863488  -10.879626 O     1 XAP    -0.5795 ****
  2 H1     12.120630    6.333034  -11.388487 H     1 XAP     0.4237 ****
  3 C2     11.797879    6.859695   -9.533367 C     1 XAP     0.6227 ****
  4 O8     11.098087    7.465435   -8.714180 O     1 XAP    -0.4863 ****
  5 C3     13.016682    6.121062   -9.075166 C     1 XAP    -0.1745 ****
  6 H2     12.853755    5.045367   -9.230525 H     1 XAP     0.0736 ****
  7 H3     13.867454    6.407634   -9.709095 H     1 XAP     0.0736 ****
  8 C4     13.296673    6.409098   -7.596767 C     1 XAP    -0.0745 ****
  9 H4     13.466850    7.485775   -7.456737 H     1 XAP     0.0652 ****
 10 H5     12.435991    6.090788   -6.990216 H     1 XAP     0.0652 ****
 11 C5     14.543030    5.630907   -7.163137 C     1 XAP    -0.1585 ****
 12 H6     14.401070    4.550853   -7.308504 H     1 XAP     0.0746 ****
 13 H7     15.416801    5.919125   -7.766009 H     1 XAP     0.0746 ****
 14 C4     14.852023    5.869520   -5.689990 C     2 rAPO    0.6677 ****
 15 O6     15.810091    5.350319   -5.106695 O     2 rAPO   -0.6236 ****
 16 N5     14.001365    6.695488   -5.052907 N     2 rAPO   -0.5695 ****
 17 H8     13.244675    7.080837   -5.567665 H     2 rAPO    0.3203 ****
 18 C7     14.130603    7.070638   -3.637471 C     2 rAPO    0.0478 ****
 19 C10    15.548351    7.552239   -3.232931 C     2 rAPO   -0.0972 ****
 20 C11    15.959789    8.773454   -4.076112 C     2 rAPO   -0.0113 ****
 21 S12    17.623805    9.301915   -3.594969 S     2 rAPO   -0.3064 ****
 22 C13    17.643722    9.813817   -1.860022 C     2 rAPO   -0.0033 ****
 23 C14    19.071721   10.225767   -1.476170 C     2 rAPO   -0.1174 ****
 24 C15    19.062183   10.656880   -0.045755 C     2 rAPO    0.4096 ****
 25 C16    19.134731    9.659294    1.020548 C     2 rAPO   -0.2427 ****
 26 C17    19.125658   10.059828    2.285625 C     2 rAPO   -0.0898 ****
 27 C19    19.044951   11.482625    2.574158 C     2 rAPO   -0.2487 ****
 28 C21    18.980907   12.351431    1.566538 C     2 rAPO    0.4002 ****
 29 N23    18.991474   11.897481    0.234823 N     2 rAPO   -0.6664 ****
 30 H21    18.921976   13.390227    1.769101 H     2 rAPO    0.0222 ****
 31 H20    19.036612   11.826512    3.576791 H     2 rAPO    0.1444 ****
 32 H19    19.176879    9.353249    3.075462 H     2 rAPO    0.1393 ****
 33 H18    19.192291    8.626589    0.784058 H     2 rAPO    0.1444 ****
 34 H16    19.712807    9.340959   -1.603155 H     2 rAPO    0.0684 ****
 35 H17    19.381673   11.056385   -2.123941 H     2 rAPO    0.0684 ****
 36 H14    16.964119   10.666241   -1.721048 H     2 rAPO    0.0719 ****
 37 H15    17.320049    8.978744   -1.221361 H     2 rAPO    0.0719 ****
 38 H12    15.960828    8.493527   -5.138864 H     2 rAPO    0.0729 ****
 39 H13    15.247440    9.594175   -3.912479 H     2 rAPO    0.0729 ****
 40 H10    15.542720    7.826547   -2.169762 H     2 rAPO    0.0789 ****
 41 H11    16.270569    6.742202   -3.393085 H     2 rAPO    0.0789 ****
 42 H9     13.389641    7.863590   -3.470719 H     2 rAPO    0.0859 ****
 43 C8     13.761286    5.903537   -2.765411 C     2 rAPO    0.6377 ****
 44 O9     14.558268    5.507832   -1.907546 O     2 rAPO   -0.6106 ****
 45 N25    12.569042    5.326446   -2.885495 N     2 rAPO   -0.5575 ****
 46 H22    11.924524    5.656406   -3.565033 H     2 rAPO    0.3443 ****
 47 C26    12.196693    4.250532   -2.002179 C     2 rAPO    0.0852 ****
 48 H23    11.655112    3.472721   -2.560479 H     2 rAPO    0.0739 ****
 49 H24    13.086190    3.830489   -1.514364 H     2 rAPO    0.0739 ****
 50 C27    11.250846    4.832443   -0.929477 C     2 rAPO    0.1127 ****
 51 H25    11.776390    5.626031   -0.380093 H     2 rAPO    0.0583 ****
 52 H26    10.362499    5.254577   -1.419827 H     2 rAPO    0.0583 ****
 53 O28    10.845626    3.812491   -0.008076 O     2 rAPO   -0.4388 ****
 54 C29     9.999825    4.373623    0.954708 C     2 rAPO    0.6357 ****
 55 O31     9.715476    5.576443    0.904319 O     2 rAPO   -0.5417 ****
 56 C30     9.441541    3.525067    2.059820 C     2 rAPO   -0.1291 ****
 57 H27     8.943700    2.648438    1.622238 H     2 rAPO    0.0834 ****
 58 H28    10.275178    3.145767    2.667258 H     2 rAPO    0.0834 ****
 59 C32     8.470028    4.342814    2.929288 C     2 rAPO   -0.0782 ****
 60 H29     9.000213    5.200105    3.364673 H     2 rAPO    0.0624 ****
 61 H30     7.637389    4.702825    2.308880 H     2 rAPO    0.0624 ****
 62 C33     7.922003    3.455690    4.057106 C     2 rAPO   -0.1560 ****
 63 H31     7.398555    2.579601    3.649343 H     2 rAPO    0.0754 ****
 64 H32     8.737884    3.070023    4.686072 H     2 rAPO    0.0754 ****
 65 C4      6.937424    4.225405    4.929300 C     3 rPOO    0.6669 ****
 66 O6      6.361380    3.725890    5.903377 O     3 rPOO   -0.6224 ****
 67 N5      6.731305    5.499360    4.568534 N     3 rPOO   -0.5703 ****
 68 H8      7.219004    5.854153    3.778402 H     3 rPOO    0.3224 ****
 69 C7      5.820753    6.384388    5.278920 C     3 rPOO    0.0508 ****
 70 C8      6.362765    6.637729    6.714213 C     3 rPOO   -0.0862 ****
 71 C9      5.435798    7.608448    7.479369 C     3 rPOO   -0.0143 ****
 72 S10     6.105494    7.893859    9.129964 S     3 rPOO   -0.2974 ****
 73 C11     5.014704    9.029409   10.012419 C     3 rPOO   -0.0143 ****
 74 C26     5.569036    9.281539   11.421451 C     3 rPOO   -0.1171 ****
 75 C27     4.682963   10.227069   12.171023 C     3 rPOO    0.6319 ****
 76 O28     3.747251   10.787337   11.587318 O     3 rPOO   -0.5375 ****
 77 O29     4.914172   10.471008   13.520807 O     3 rPOO   -0.4387 ****
 78 C30     3.946697   11.397682   14.015225 C     3 rPOO    0.1260 ****
 79 H31     4.131737   11.587136   15.081841 H     3 rPOO    0.0518 ****
 80 H32     2.937253   10.977392   13.886461 H     3 rPOO    0.0518 ****
 81 H33     4.023996   12.340863   13.456444 H     3 rPOO    0.0518 ****
 82 H29     5.658416    8.347239   11.993199 H     3 rPOO    0.0940 ****
 83 H30     6.577368    9.717398   11.364065 H     3 rPOO    0.0940 ****
 84 H14     4.957232    9.981710    9.464862 H     3 rPOO    0.0784 ****
 85 H15     4.009603    8.588766   10.087293 H     3 rPOO    0.0784 ****
 86 H12     5.378667    8.562020    6.938036 H     3 rPOO    0.0709 ****
 87 H13     4.429210    7.176647    7.569534 H     3 rPOO    0.0709 ****
 88 H10     6.427669    5.686907    7.259490 H     3 rPOO    0.0799 ****
 89 H11     7.362971    7.087457    6.642563 H     3 rPOO    0.0799 ****
 90 H9      5.761623    7.318089    4.704194 H     3 rPOO    0.0869 ****
 91 C12     4.462038    5.734150    5.325112 C     3 rPOO    0.6389 ****
 92 O13     4.118805    5.063273    6.306073 O     3 rPOO   -0.6144 ****
 93 N14     3.633788    5.875184    4.300546 N     3 rPOO   -0.5593 ****
 94 H16     3.907419    6.409677    3.509666 H     3 rPOO    0.3455 ****
 95 C15     2.350556    5.254381    4.337906 C     3 rPOO    0.0852 ****
 96 H17     2.477858    4.174013    4.500997 H     3 rPOO    0.0734 ****
 97 H18     1.777455    5.664308    5.181302 H     3 rPOO    0.0734 ****
 98 C16     1.610522    5.510833    3.021242 C     3 rPOO    0.1147 ****
 99 H19     1.486368    6.593104    2.876062 H     3 rPOO    0.0579 ****
100 H20     2.192780    5.091871    2.187308 H     3 rPOO    0.0579 ****
101 O17     0.329473    4.884056    3.070178 O     3 rPOO   -0.4387 ****
102 C18    -0.347049    5.112357    1.878743 C     3 rPOO    0.6369 ****
103 O19     0.180432    5.773696    0.977583 O     3 rPOO   -0.5415 ****
104 C20    -1.718822    4.550766    1.684113 C     3 rPOO   -0.1290 ****
105 H21    -1.901035    3.737571    2.400573 H     3 rPOO    0.0839 ****
106 H22    -2.454660    5.350618    1.853755 H     3 rPOO    0.0839 ****
107 C21    -1.878556    4.081769    0.235498 C     3 rPOO   -0.0782 ****
108 H23    -1.714700    4.928728   -0.445394 H     3 rPOO    0.0629 ****
109 H24    -1.145022    3.292073    0.020767 H     3 rPOO    0.0629 ****
110 C22    -3.296442    3.535988    0.038655 C     3 rPOO   -0.1560 ****
111 H25    -3.483705    2.694654    0.720484 H     3 rPOO    0.0754 ****
112 H26    -4.053098    4.301748    0.264669 H     3 rPOO    0.0754 ****
113 C4     -3.499823    3.043476   -1.389156 C     4 rOOO    0.6669 ****
114 O6     -4.563489    2.558165   -1.793208 O     4 rOOO   -0.6224 ****
115 N5     -2.435649    3.171357   -2.193382 N     4 rOOO   -0.5703 ****
116 H8     -1.603887    3.568371   -1.821107 H     4 rOOO    0.3224 ****
117 C7     -2.442223    2.749383   -3.585833 C     4 rOOO    0.0508 ****
118 C8     -3.441895    3.630725   -4.387029 C     4 rOOO   -0.0862 ****
119 C9     -3.439644    3.231514   -5.879561 C     4 rOOO   -0.0143 ****
120 S10    -4.593953    4.286245   -6.779300 S     4 rOOO   -0.2974 ****
121 C11    -4.581135    3.810650   -8.520469 C     4 rOOO   -0.0143 ****
122 C26    -5.560958    4.697554   -9.301221 C     4 rOOO   -0.1171 ****
123 C27    -5.562551    4.325216  -10.751177 C     4 rOOO    0.6319 ****
124 O28    -4.737038    3.508724  -11.177834 O     4 rOOO   -0.5375 ****
125 O29    -6.492723    4.897476  -11.612676 O     4 rOOO   -0.4387 ****
126 C30    -6.301073    4.390437  -12.933799 C     4 rOOO    0.1260 ****
127 H31    -7.038167    4.843785  -13.611270 H     4 rOOO    0.0518 ****
128 H32    -6.430109    3.297034  -12.929112 H     4 rOOO    0.0518 ****
129 H33    -5.286750    4.637366  -13.277273 H     4 rOOO    0.0518 ****
130 H29    -6.584086    4.610691   -8.909476 H     4 rOOO    0.0940 ****
131 H30    -5.274511    5.755820   -9.211657 H     4 rOOO    0.0940 ****
132 H14    -3.567057    3.937742   -8.927280 H     4 rOOO    0.0784 ****
133 H15    -4.884456    2.757557   -8.615290 H     4 rOOO    0.0784 ****
134 H12    -2.429752    3.360618   -6.290722 H     4 rOOO    0.0709 ****
135 H13    -3.749720    2.182977   -5.990124 H     4 rOOO    0.0709 ****
136 H10    -4.453437    3.510508   -3.977230 H     4 rOOO    0.0799 ****
137 H11    -3.135513    4.682765   -4.302524 H     4 rOOO    0.0799 ****
138 H9     -1.417796    2.863496   -3.964160 H     4 rOOO    0.0869 ****
139 C12    -2.841625    1.297386   -3.642701 C     4 rOOO    0.6389 ****
140 O13    -4.020120    0.976395   -3.838362 O     4 rOOO   -0.6144 ****
141 N14    -1.922512    0.358556   -3.471080 N     4 rOOO   -0.5593 ****
142 H16    -0.976176    0.612501   -3.309808 H     4 rOOO    0.3455 ****
143 C15    -2.298802   -1.016157   -3.516320 C     4 rOOO    0.0852 ****
144 H17    -3.086629   -1.198533   -2.770620 H     4 rOOO    0.0734 ****
145 H18    -2.707101   -1.244436   -4.510796 H     4 rOOO    0.0734 ****
146 C16    -1.079602   -1.898501   -3.229887 C     4 rOOO    0.1147 ****
147 H19    -0.304930   -1.708869   -3.986012 H     4 rOOO    0.0579 ****
148 H20    -0.684516   -1.662547   -2.230772 H     4 rOOO    0.0579 ****
149 O17    -1.468767   -3.270618   -3.276534 O     4 rOOO   -0.4387 ****
150 C18    -0.367646   -4.076581   -3.017155 C     4 rOOO    0.6369 ****
151 O19     0.737348   -3.570954   -2.791265 O     4 rOOO   -0.5415 ****
152 C20    -0.521588   -5.563597   -3.006591 C     4 rOOO   -0.1290 ****
153 H21    -1.579942   -5.834615   -2.887274 H     4 rOOO    0.0839 ****
154 H22    -0.154143   -5.962966   -3.963402 H     4 rOOO    0.0839 ****
155 C21     0.348965   -6.159921   -1.897313 C     4 rOOO   -0.0782 ****
156 H23     1.399958   -5.888037   -2.068468 H     4 rOOO    0.0629 ****
157 H24     0.023568   -5.768972   -0.923108 H     4 rOOO    0.0629 ****
158 C22     0.207446   -7.685277   -1.914263 C     4 rOOO   -0.1560 ****
159 H25    -0.840335   -7.976934   -1.756492 H     4 rOOO    0.0754 ****
160 H26     0.509898   -8.102725   -2.885994 H     4 rOOO    0.0754 ****
161 C4      1.048221   -8.325017   -0.815898 C     5 rOOO    0.6669 ****
162 O6      1.099795   -9.546415   -0.626963 O     5 rOOO   -0.6224 ****
163 N5      1.740121   -7.466501   -0.054437 N     5 rOOO   -0.5703 ****
164 H8      1.665655   -6.494197   -0.247092 H     5 rOOO    0.3224 ****
165 C7      2.590985   -7.894453    1.045523 C     5 rOOO    0.0508 ****
166 C8      3.785571   -8.716325    0.483814 C     5 rOOO   -0.0862 ****
167 C9      4.729574   -9.149969    1.627420 C     5 rOOO   -0.0143 ****
168 S10     6.111241  -10.082189    0.937218 S     5 rOOO   -0.2974 ****
169 C11     7.206274  -10.581680    2.282371 C     5 rOOO   -0.0143 ****
170 C26     8.387521  -11.379143    1.712343 C     5 rOOO   -0.1171 ****
171 C27     9.314075  -11.799129    2.810577 C     5 rOOO    0.6319 ****
172 O28     9.138709  -11.375478    3.959462 O     5 rOOO   -0.5375 ****
173 O29    10.367507  -12.664859    2.535488 O     5 rOOO   -0.4387 ****
174 C30    11.105471  -12.920372    3.731024 C     5 rOOO    0.1260 ****
175 H31    11.936027  -13.605352    3.510162 H     5 rOOO    0.0518 ****
176 H32    10.441606  -13.377679    4.480927 H     5 rOOO    0.0518 ****
177 H33    11.504558  -11.974880    4.124185 H     5 rOOO    0.0518 ****
178 H29     8.047357  -12.273139    1.171178 H     5 rOOO    0.0940 ****
179 H30     8.951500  -10.766999    0.993172 H     5 rOOO    0.0940 ****
180 H14     7.583021   -9.686771    2.799285 H     5 rOOO    0.0784 ****
181 H15     6.650002  -11.208973    2.994457 H     5 rOOO    0.0784 ****
182 H12     5.111096   -8.259229    2.143779 H     5 rOOO    0.0709 ****
183 H13     4.188735   -9.785409    2.342620 H     5 rOOO    0.0709 ****
184 H10     3.410559   -9.606128   -0.038891 H     5 rOOO    0.0799 ****
185 H11     4.349330   -8.088675   -0.220481 H     5 rOOO    0.0799 ****
186 H9      2.936983   -6.988007    1.559571 H     5 rOOO    0.0869 ****
187 C12     1.764857   -8.726460    1.992267 C     5 rOOO    0.6389 ****
188 O13     1.753153   -9.959907    1.899309 O     5 rOOO   -0.6144 ****
189 N14     1.037634   -8.128767    2.924755 N     5 rOOO   -0.5593 ****
190 H16     1.041417   -7.138616    2.999825 H     5 rOOO    0.3455 ****
191 C15     0.248598   -8.912972    3.816899 C     5 rOOO    0.0852 ****
192 H17    -0.436284   -9.544273    3.231752 H     5 rOOO    0.0734 ****
193 H18     0.910017   -9.570345    4.398437 H     5 rOOO    0.0734 ****
194 C16    -0.542610   -7.995429    4.754518 C     5 rOOO    0.1147 ****
195 H19     0.155264   -7.376263    5.335385 H     5 rOOO    0.0579 ****
196 H20    -1.202754   -7.346964    4.159788 H     5 rOOO    0.0579 ****
197 O17    -1.328653   -8.791066    5.640760 O     5 rOOO   -0.4387 ****
198 C18    -2.049282   -7.965053    6.493824 C     5 rOOO    0.6369 ****
199 O19    -1.947906   -6.736285    6.406939 O     5 rOOO   -0.5415 ****
200 C20    -2.955963   -8.566124    7.519332 C     5 rOOO   -0.1290 ****
201 H21    -3.190486   -9.606791    7.255113 H     5 rOOO    0.0839 ****
202 H22    -2.446329   -8.549051    8.494002 H     5 rOOO    0.0839 ****
203 C21    -4.219520   -7.711332    7.648629 C     5 rOOO   -0.0782 ****
204 H23    -3.943102   -6.688065    7.939005 H     5 rOOO    0.0629 ****
205 H24    -4.749064   -7.688373    6.685895 H     5 rOOO    0.0629 ****
206 C22    -5.127877   -8.318506    8.722524 C     5 rOOO   -0.1560 ****
207 H25    -5.405726   -9.347716    8.455451 H     5 rOOO    0.0754 ****
208 H26    -4.615837   -8.370437    9.694696 H     5 rOOO    0.0754 ****
209 C4     -6.408399   -7.507063    8.878727 C     6 rOOP    0.6669 ****
210 O6     -7.300534   -7.797950    9.684735 O     6 rOOP   -0.6224 ****
211 N5     -6.509005   -6.440190    8.074201 N     6 rOOP   -0.5703 ****
212 H8     -5.764456   -6.248452    7.444187 H     6 rOOP    0.3224 ****
213 C7     -7.662580   -5.553469    8.078166 C     6 rOOP    0.0508 ****
214 C8     -7.742483   -4.817388    9.445581 C     6 rOOP   -0.0862 ****
215 C9     -8.936370   -3.836910    9.463580 C     6 rOOP   -0.0143 ****
216 S10    -8.985441   -2.988340   11.054787 S     6 rOOP   -0.2974 ****
217 C11   -10.382963   -1.846018   11.062490 C     6 rOOP   -0.0143 ****
218 C26   -10.441140   -1.116489   12.411797 C     6 rOOP   -0.1171 ****
219 C27   -11.590276   -0.157455   12.439139 C     6 rOOP    0.6319 ****
220 O28   -12.242310    0.051322   11.408880 O     6 rOOP   -0.5375 ****
221 O29   -11.921277    0.494052   13.622718 O     6 rOOP   -0.4387 ****
222 C30   -13.043593    1.349437   13.403843 C     6 rOOP    0.1260 ****
223 H31   -13.302870    1.861525   14.341042 H     6 rOOP    0.0518 ****
224 H32   -13.901452    0.748859   13.063863 H     6 rOOP    0.0518 ****
225 H33   -12.791919    2.094624   12.636278 H     6 rOOP    0.0518 ****
226 H29   -10.545331   -1.822024   13.247958 H     6 rOOP    0.0940 ****
227 H30    -9.511468   -0.554186   12.583629 H     6 rOOP    0.0940 ****
228 H14   -10.259797   -1.111337   10.253123 H     6 rOOP    0.0784 ****
229 H15   -11.316370   -2.407344   10.908664 H     6 rOOP    0.0784 ****
230 H12    -8.815402   -3.099208    8.659363 H     6 rOOP    0.0709 ****
231 H13    -9.877553   -4.385794    9.319701 H     6 rOOP    0.0709 ****
232 H10    -7.857990   -5.550088   10.255157 H     6 rOOP    0.0799 ****
233 H11    -6.815225   -4.247376    9.597500 H     6 rOOP    0.0799 ****
234 H9     -7.529423   -4.844337    7.250515 H     6 rOOP    0.0869 ****
235 C12    -8.900348   -6.379429    7.839906 C     6 rOOP    0.6389 ****
236 O13    -9.574283   -6.791690    8.791758 O     6 rOOP   -0.6144 ****
237 N14    -9.261980   -6.673890    6.599688 N     6 rOOP   -0.5593 ****
238 H16    -8.721202   -6.348059    5.833240 H     6 rOOP    0.3455 ****
239 C15   -10.428227   -7.462060    6.371367 C     6 rOOP    0.0852 ****
240 H17   -10.330103   -8.415190    6.911658 H     6 rOOP    0.0734 ****
241 H18   -11.304517   -6.930515    6.768075 H     6 rOOP    0.0734 ****
242 C16   -10.598455   -7.715747    4.870138 C     6 rOOP    0.1147 ****
243 H19   -10.700841   -6.755219    4.346017 H     6 rOOP    0.0579 ****
244 H20    -9.717114   -8.251627    4.487945 H     6 rOOP    0.0579 ****
245 O17   -11.767016   -8.505915    4.654667 O     6 rOOP   -0.4387 ****
246 C18   -11.927203   -8.740163    3.294965 C     6 rOOP    0.6369 ****
247 O19   -11.115268   -8.283783    2.482454 O     6 rOOP   -0.5415 ****
248 C20   -13.085627   -9.552856    2.812671 C     6 rOOP   -0.1290 ****
249 H21   -13.501338  -10.147910    3.637835 H     6 rOOP    0.0839 ****
250 H22   -13.861766   -8.871035    2.434875 H     6 rOOP    0.0839 ****
251 C21   -12.640494  -10.433141    1.641809 C     6 rOOP   -0.0782 ****
252 H23   -12.257101   -9.799146    0.830107 H     6 rOOP    0.0629 ****
253 H24   -11.849099  -11.118538    1.976063 H     6 rOOP    0.0629 ****
254 C22   -13.841036  -11.239161    1.135790 C     6 rOOP   -0.1560 ****
255 H25   -14.246520  -11.871451    1.938032 H     6 rOOP    0.0754 ****
256 H26   -14.657096  -10.576998    0.810847 H     6 rOOP    0.0754 ****
257 C4    -13.443182  -12.142980   -0.024985 C     7 rOPO    0.6677 ****
258 O6    -14.238729  -12.891419   -0.603465 O     7 rOPO   -0.6236 ****
259 N5    -12.148617  -12.073845   -0.386979 N     7 rOPO   -0.5695 ****
260 H8    -11.551164  -11.460053    0.115375 H     7 rOPO    0.3203 ****
261 C7    -11.565187  -12.848379   -1.491790 C     7 rOPO    0.0478 ****
262 C10   -12.365519  -12.768685   -2.817957 C     7 rOPO   -0.0972 ****
263 C11   -12.480806  -11.306271   -3.286630 C     7 rOPO   -0.0113 ****
264 S12   -13.433913  -11.242446   -4.825212 S     7 rOPO   -0.3064 ****
265 C13   -12.582563  -12.160925   -6.130617 C     7 rOPO   -0.0033 ****
266 C14   -13.429450  -12.113249   -7.409966 C     7 rOPO   -0.1174 ****
267 C15   -12.702307  -12.865192   -8.476681 C     7 rOPO    0.4096 ****
268 C16   -12.802774  -14.322174   -8.544157 C     7 rOPO   -0.2427 ****
269 C17   -12.150731  -14.974100   -9.498495 C     7 rOPO   -0.0898 ****
270 C19   -11.354872  -14.217798  -10.451769 C     7 rOPO   -0.2487 ****
271 C21   -11.295963  -12.891211  -10.347275 C     7 rOPO    0.4002 ****
272 N23   -11.997330  -12.226941   -9.324299 N     7 rOPO   -0.6664 ****
273 H21   -10.717900  -12.333110  -11.038625 H     7 rOPO    0.0222 ****
274 H20   -10.825583  -14.716491  -11.222975 H     7 rOPO    0.1444 ****
275 H19   -12.208926  -16.031350   -9.566006 H     7 rOPO    0.1393 ****
276 H18   -13.389636  -14.851372   -7.836157 H     7 rOPO    0.1444 ****
277 H16   -14.388887  -12.602288   -7.185642 H     7 rOPO    0.0684 ****
278 H17   -13.560078  -11.063289   -7.703436 H     7 rOPO    0.0684 ****
279 H14   -11.601305  -11.704002   -6.320759 H     7 rOPO    0.0719 ****
280 H15   -12.446026  -13.207719   -5.821457 H     7 rOPO    0.0719 ****
281 H12   -12.998425  -10.720279   -2.514306 H     7 rOPO    0.0729 ****
282 H13   -11.477455  -10.890071   -3.453555 H     7 rOPO    0.0729 ****
283 H10   -11.846444  -13.358965   -3.584596 H     7 rOPO    0.0789 ****
284 H11   -13.370986  -13.179818   -2.664942 H     7 rOPO    0.0789 ****
285 H9    -10.549397  -12.454338   -1.627830 H     7 rOPO    0.0859 ****
286 C8    -11.450002  -14.293614   -1.095512 C     7 rOPO    0.6377 ****
287 O9    -11.957705  -15.163906   -1.811421 O     7 rOPO   -0.6106 ****
288 N25   -10.770634  -14.638822   -0.005470 N     7 rOPO   -0.5575 ****
289 H22   -10.350425  -13.938624    0.559503 H     7 rOPO    0.3443 ****
290 C26   -10.608879  -16.030226    0.332630 C     7 rOPO    0.0852 ****
291 H23   -10.712845  -16.170355    1.418703 H     7 rOPO    0.0739 ****
292 H24   -11.340285  -16.643564   -0.210018 H     7 rOPO    0.0739 ****
293 C27    -9.181566  -16.449015   -0.081289 C     7 rOPO    0.1127 ****
294 H25    -9.060867  -16.292148   -1.162319 H     7 rOPO    0.0583 ****
295 H26    -8.451126  -15.832362    0.460926 H     7 rOPO    0.0583 ****
296 O28    -8.954266  -17.831201    0.221011 O     7 rOPO   -0.4388 ****
297 C29    -7.658765  -18.180491   -0.175064 C     7 rOPO    0.6357 ****
298 O31    -6.918124  -17.333182   -0.688567 O     7 rOPO   -0.5417 ****
299 C30    -7.162934  -19.585201    0.009177 C     7 rOPO   -0.1291 ****
300 H27    -7.301191  -19.879471    1.058982 H     7 rOPO    0.0834 ****
301 H28    -7.786380  -20.260054   -0.593889 H     7 rOPO    0.0834 ****
302 C32    -5.686775  -19.695534   -0.411895 C     7 rOPO   -0.0782 ****
303 H29    -5.584286  -19.411767   -1.467630 H     7 rOPO    0.0624 ****
304 H30    -5.077399  -19.024318    0.209339 H     7 rOPO    0.0624 ****
305 C33    -5.207802  -21.142790   -0.223924 C     7 rOPO   -0.1560 ****
306 H31    -5.313788  -21.459337    0.823151 H     7 rOPO    0.0754 ****
307 H32    -5.811506  -21.838308   -0.825419 H     7 rOPO    0.0754 ****
308 C4     -3.740953  -21.288292   -0.610911 C     8 rPOT    0.6666 ****
309 O6     -3.126419  -22.359887   -0.546086 O     8 rPOT   -0.6227 ****
310 N5     -3.148391  -20.163038   -1.033135 N     8 rPOT   -0.5706 ****
311 H8     -3.685669  -19.327477   -1.067877 H     8 rPOT    0.3222 ****
312 C7     -1.751730  -20.109210   -1.437442 C     8 rPOT    0.0508 ****
313 C8     -1.552323  -20.967583   -2.718636 C     8 rPOT   -0.0862 ****
314 C9     -0.084394  -20.895920   -3.195159 C     8 rPOT   -0.0143 ****
315 S10     0.104342  -21.885557   -4.691625 S     8 rPOT   -0.2975 ****
316 C11     1.822106  -21.792710   -5.238152 C     8 rPOT   -0.0143 ****
317 C26     2.001150  -22.632304   -6.510649 C     8 rPOT   -0.1171 ****
318 C27     3.418779  -22.565063   -6.986899 C     8 rPOT    0.6315 ****
319 O28     4.213838  -21.787587   -6.445068 O     8 rPOT   -0.5378 ****
320 O29     3.836908  -23.377668   -8.035576 O     8 rPOT   -0.4389 ****
321 C30     5.218303  -23.139489   -8.307981 C     8 rPOT    0.1260 ****
322 H31     5.545351  -23.783798   -9.136055 H     8 rPOT    0.0518 ****
323 H32     5.813357  -23.365396   -7.409606 H     8 rPOT    0.0518 ****
324 H33     5.360504  -22.085569   -8.585167 H     8 rPOT    0.0518 ****
325 H29     1.731129  -23.684113   -6.341568 H     8 rPOT    0.0939 ****
326 H30     1.344763  -22.259762   -7.310880 H     8 rPOT    0.0939 ****
327 H14     2.082845  -20.745252   -5.449922 H     8 rPOT    0.0784 ****
328 H15     2.480240  -22.181187   -4.446985 H     8 rPOT    0.0784 ****
329 H12     0.178932  -19.852134   -3.411435 H     8 rPOT    0.0709 ****
330 H13     0.584501  -21.289595   -2.417084 H     8 rPOT    0.0709 ****
331 H10    -1.819348  -22.012119   -2.510684 H     8 rPOT    0.0799 ****
332 H11    -2.201276  -20.575432   -3.514173 H     8 rPOT    0.0799 ****
333 H9     -1.507852  -19.054628   -1.621793 H     8 rPOT    0.0869 ****
334 C12    -0.906347  -20.631341   -0.304413 C     8 rPOT    0.6385 ****
335 O13    -0.554941  -21.817047   -0.276406 O     8 rPOT   -0.6147 ****
336 N14    -0.546338  -19.813845    0.674218 N     8 rPOT   -0.5596 ****
337 H16    -0.829914  -18.862350    0.657157 H     8 rPOT    0.3453 ****
338 C15     0.246828  -20.306949    1.751814 C     8 rPOT    0.0852 ****
339 H17    -0.269783  -21.158378    2.218915 H     8 rPOT    0.0734 ****
340 H18     1.208509  -20.662993    1.356589 H     8 rPOT    0.0734 ****
341 C16     0.476740  -19.194350    2.779573 C     8 rPOT    0.1147 ****
342 H19     0.998249  -18.354612    2.299292 H     8 rPOT    0.0578 ****
343 H20    -0.492887  -18.851077    3.169429 H     8 rPOT    0.0578 ****
344 O17     1.269797  -19.699915    3.852789 O     8 rPOT   -0.4389 ****
345 C18     1.481825  -18.695928    4.788937 C     8 rPOT    0.6365 ****
346 O19     1.004944  -17.568931    4.615277 O     8 rPOT   -0.5418 ****
347 C20     2.287363  -18.982046    6.015425 C     8 rPOT   -0.1291 ****
348 H21     2.346476  -20.066092    6.186165 H     8 rPOT    0.0839 ****
349 H22     3.303048  -18.585243    5.870748 H     8 rPOT    0.0839 ****
350 C21     1.675528  -18.248246    7.211734 C     8 rPOT   -0.0782 ****
351 H23     1.659422  -17.167791    7.011336 H     8 rPOT    0.0628 ****
352 H24     0.649449  -18.605246    7.377604 H     8 rPOT    0.0628 ****
353 C3      2.484866  -18.491716    8.496700 C     9 rOTX   -0.1435 ****
354 H11     3.515510  -18.131773    8.361734 H     9 rOTX    0.0625 ****
355 H12     2.505594  -19.567390    8.725817 H     9 rOTX    0.0625 ****
356 C4      1.870460  -17.761144    9.673133 C     9 rOTX    0.6707 ****
357 N5      1.761775  -16.419992    9.735647 N     9 rOTX   -0.5586 ****
358 C7      2.218279  -15.522611    8.682480 C     9 rOTX    0.0027 ****
359 C8      3.708736  -15.036239    8.870156 C     9 rOTX   -0.1031 ****
360 C9      3.938293  -13.980288    7.740891 C     9 rOTX   -0.0269 ****
361 S10     2.539328  -13.023105    8.055334 S     9 rOTX   -0.2001 ****
362 C11     1.506415  -14.193498    8.673647 C     9 rOTX    0.5568 ****
363 O12     0.398318  -13.975150    9.175783 O     9 rOTX   -0.4729 ****
364 H16     3.852269  -14.455550    6.753710 H     9 rOTX    0.0853 ****
365 H17     4.891221  -13.439810    7.839948 H     9 rOTX    0.0853 ****
366 H14     4.432628  -15.862306    8.832811 H     9 rOTX    0.0731 ****
367 H15     3.777044  -14.525391    9.840810 H     9 rOTX    0.0731 ****
368 H13     2.153307  -15.988667    7.691532 H     9 rOTX    0.0828 ****
369 H2      1.349706  -16.019743   10.545615 H     9 rOTX    0.3358 ****
370 O6      1.451818  -18.428421   10.624293 O     9 rOTX   -0.5854 ****
371 NI     -3.649307   -2.420364   21.648189 N    10 DNI    -1.0000 ****
372 DM1    -4.519672   -2.890184   21.801215 D    10 DNI     0.5000 ****
373 DM2    -3.675378   -2.068743   22.584155 D    10 DNI     0.5000 ****
374 DM3    -4.143296   -1.610570   21.329564 D    10 DNI     0.5000 ****
375 DM4    -3.623802   -2.772758   20.712507 D    10 DNI     0.5000 ****
376 DM5    -3.156482   -3.229396   21.966562 D    10 DNI     0.5000 ****
377 DM6    -2.780673   -1.950556   21.495196 D    10 DNI     0.5000 ****
378 Cl-    -3.007166    0.294050   23.165896 C    11 Cl-    -1.0000 ****
379 Cl-    -4.768867   -4.837699   19.765666 C    12 Cl-    -1.0000 ****
380 HC1    -1.723044   -1.717827   32.001814 H    13 MOH     0.0372 ****
381 C1     -1.185531   -1.375307   31.117224 C    13 MOH     0.1166 ****
382 HC2    -1.513466   -1.949304   30.250311 H    13 MOH     0.0372 ****
383 HC3    -0.126094   -1.559835   31.295415 H    13 MOH     0.0372 ****
384 O1     -1.445916    0.005389   30.848523 O    13 MOH    -0.6497 ****
385 HO1    -1.186686    0.210330   29.947669 H    13 MOH     0.4215 ****
386 HC1    -6.971158   -9.095690   30.273645 H    14 MOH     0.0372 ****
387 C1     -6.047398   -8.907488   29.725638 C    14 MOH     0.1166 ****
388 HC2    -5.456769   -9.822372   29.763114 H    14 MOH     0.0372 ****
389 HC3    -5.524896   -8.084051   30.212834 H    14 MOH     0.0372 ****
390 O1     -6.320485   -8.555169   28.371528 O    14 MOH    -0.6497 ****
391 HO1    -5.538752   -8.133041   28.008075 H    14 MOH     0.4215 ****
392 HC1    -3.285470    0.983797   33.233594 H    15 MOH     0.0372 ****
393 C1     -2.872664    1.991354   33.196825 C    15 MOH     0.1166 ****
394 HC2    -2.958112    2.462064   34.176168 H    15 MOH     0.0372 ****
395 HC3    -3.449437    2.579231   32.482647 H    15 MOH     0.0372 ****
396 O1     -1.533212    1.935832   32.765490 O    15 MOH    -0.6497 ****
397 HO1    -1.499725    1.275286   32.069697 H    15 MOH     0.4215 ****
398 HC1    -2.630755    5.098940   35.456738 H    16 MOH     0.0372 ****
399 C1     -1.842671    5.133233   34.704377 C    16 MOH     0.1166 ****
400 HC2    -2.262982    5.524743   33.777360 H    16 MOH     0.0372 ****
401 HC3    -1.444877    4.135474   34.517700 H    16 MOH     0.0372 ****
402 O1     -0.836350    6.033420   35.054394 O    16 MOH    -0.6497 ****
403 HO1    -0.009007    5.568425   34.910852 H    16 MOH     0.4215 ****
404 HC1     0.572962    4.478402   32.738620 H    17 MOH     0.0372 ****
405 C1      1.003088    3.908488   33.563106 C    17 MOH     0.1166 ****
406 HC2     1.778469    3.264680   33.148035 H    17 MOH     0.0372 ****
407 HC3     0.257729    3.259781   34.023433 H    17 MOH     0.0372 ****
408 O1      1.572355    4.802960   34.502851 O    17 MOH    -0.6497 ****
409 HO1     1.986893    4.263664   35.179552 H    17 MOH     0.4215 ****
410 HC1     4.627116    7.306746   30.273645 H    18 MOH     0.0372 ****
411 C1      5.550876    7.494949   29.725638 C    18 MOH     0.1166 ****
412 HC2     6.141505    6.580064   29.763114 H    18 MOH     0.0372 ****
413 HC3     6.073378    8.318386   30.212834 H    18 MOH     0.0372 ****
414 O1      5.277789    7.847267   28.371528 O    18 MOH    -0.6497 ****
415 HO1     6.059522    8.269396   28.008075 H    18 MOH     0.4215 ****
416 HC1    -0.489362   -0.574487   33.925852 H    19 MOH     0.0372 ****
417 C1      0.024479   -0.265443   34.835898 C    19 MOH     0.1166 ****
418 HC2     1.107588   -0.291571   34.719933 H    19 MOH     0.0372 ****
419 HC3    -0.278630   -0.904760   35.666042 H    19 MOH     0.0372 ****
420 O1     -0.414884    0.991962   35.118741 O    19 MOH    -0.6497 ****
421 HO1    -0.746861    1.354078   34.293548 H    19 MOH     0.4215 ****
422 HC1    -1.723044  -26.321482   17.796888 H    20 MOH     0.0372 ****
423 C1     -1.185531  -25.978962   16.912297 C    20 MOH     0.1166 ****
424 HC2    -1.513466  -26.552959   16.045384 H    20 MOH     0.0372 ****
425 HC3    -0.126093  -26.163490   17.090488 H    20 MOH     0.0372 ****
426 O1     -1.445916  -24.598266   16.643597 O    20 MOH    -0.6497 ****
427 HO1    -1.186686  -24.393325   15.742743 H    20 MOH     0.4215 ****
428 HC1    -6.971158  -33.699345   16.068719 H    21 MOH     0.0372 ****
429 C1     -6.047398  -33.511142   15.520711 C    21 MOH     0.1166 ****
430 HC2    -5.456768  -34.426027   15.558188 H    21 MOH     0.0372 ****
431 HC3    -5.524896  -32.687706   16.007908 H    21 MOH     0.0372 ****
432 O1     -6.320484  -33.158824   14.166602 O    21 MOH    -0.6497 ****
433 HO1    -5.538752  -32.736695   13.803149 H    21 MOH     0.4215 ****
434 HC1     1.425131   -9.951297   26.708555 H    22 MOH     0.0372 ****
435 C1      0.388787   -9.812492   27.015439 C    22 MOH     0.1166 ****
436 HC2    -0.174706   -9.448335   26.157011 H    22 MOH     0.0372 ****
437 HC3     0.318928   -9.062540   27.803863 H    22 MOH     0.0372 ****
438 O1     -0.136601  -11.055200   27.432632 O    22 MOH    -0.6497 ****
439 HO1    -0.899281  -10.902924   27.994782 H    22 MOH     0.4215 ****
440 HC1     7.654163  -25.357771   21.893158 H    23 MOH     0.0372 ****
441 C1      7.467102  -26.343690   22.318129 C    23 MOH     0.1166 ****
442 HC2     7.075081  -26.248977   23.330706 H    23 MOH     0.0372 ****
443 HC3     8.424349  -26.860125   22.386718 H    23 MOH     0.0372 ****
444 O1      6.625902  -27.147531   21.468893 O    23 MOH    -0.6497 ****
445 HO1     5.909988  -27.493726   22.006295 H    23 MOH     0.4215 ****
446 HC1     2.474754  -11.402619   31.377581 H    24 MOH     0.0372 ****
447 C1      3.078662  -10.851076   32.098122 C    24 MOH     0.1166 ****
448 HC2     3.890417  -11.486310   32.451676 H    24 MOH     0.0372 ****
449 HC3     2.430298  -10.565302   32.926852 H    24 MOH     0.0372 ****
450 O1      3.583266   -9.727169   31.442634 O    24 MOH    -0.6497 ****
451 HO1     4.396176   -9.465481   31.881748 H    24 MOH     0.4215 ****
452 HC1     9.178945  -17.810076   18.916238 H    25 MOH     0.0372 ****
453 C1      8.386821  -18.342432   19.442325 C    25 MOH     0.1166 ****
454 HC2     8.413956  -18.084828   20.500864 H    25 MOH     0.0372 ****
455 HC3     8.552520  -19.410002   19.300197 H    25 MOH     0.0372 ****
456 O1      7.158219  -17.926836   18.886539 O    25 MOH    -0.6497 ****
457 HO1     6.463667  -18.285686   19.444447 H    25 MOH     0.4215 ****
458 HC1     9.875230   -9.919045   17.796888 H    26 MOH     0.0372 ****
459 C1     10.412743   -9.576525   16.912297 C    26 MOH     0.1166 ****
460 HC2    10.084808  -10.150522   16.045384 H    26 MOH     0.0372 ****
461 HC3    11.472181   -9.761053   17.090488 H    26 MOH     0.0372 ****
462 O1     10.152358   -8.195829   16.643597 O    26 MOH    -0.6497 ****
463 HO1    10.411588   -7.990889   15.742743 H    26 MOH     0.4215 ****
464 HC1    13.244069  -11.751264   26.439147 H    27 MOH     0.0372 ****
465 C1     13.292566  -12.838837   26.388235 C    27 MOH     0.1166 ****
466 HC2    12.914402  -13.193605   25.430106 H    27 MOH     0.0372 ****
467 HC3    12.685771  -13.285461   27.175952 H    27 MOH     0.0372 ****
468 O1     14.629132  -13.273213   26.461774 O    27 MOH    -0.6497 ****
469 HO1    14.596800  -14.232597   26.482988 H    27 MOH     0.4215 ****
470 HC1     4.333822  -12.775967   20.865731 H    28 MOH     0.0372 ****
471 C1      4.379433  -13.230755   19.875782 C    28 MOH     0.1166 ****
472 HC2     5.296842  -13.809651   19.766887 H    28 MOH     0.0372 ****
473 HC3     4.369040  -12.453042   19.112814 H    28 MOH     0.0372 ****
474 O1      3.276116  -14.067256   19.658700 O    28 MOH    -0.6497 ****
475 HO1     3.535346  -14.954788   19.916087 H    28 MOH     0.4215 ****
476 HC1    12.440974  -17.332834   19.361008 H    29 MOH     0.0372 ****
477 C1     12.639583  -16.372226   19.835477 C    29 MOH     0.1166 ****
478 HC2    13.704217  -16.155038   19.752038 H    29 MOH     0.0372 ****
479 HC3    12.410375  -16.407335   20.900380 H    29 MOH     0.0372 ****
480 O1     11.846304  -15.376508   19.184231 O    29 MOH    -0.6497 ****
481 HO1    11.893646  -14.600428   19.747796 H    29 MOH     0.4215 ****
482 HC1    11.282232  -22.800095   24.372981 H    30 MOH     0.0372 ****
483 C1     11.329575  -22.076679   25.187568 C    30 MOH     0.1166 ****
484 HC2    10.536296  -21.349181   25.016448 H    30 MOH     0.0372 ****
485 HC3    12.290286  -21.563103   25.140899 H    30 MOH     0.0372 ****
486 O1     11.144246  -22.718446   26.481573 O    30 MOH    -0.6497 ****
487 HO1    10.952565  -22.042795   27.137061 H    30 MOH     0.4215 ****
488 HC1    -5.038305  -18.957254   22.950989 H    31 MOH     0.0372 ****
489 C1     -4.995581  -18.715571   24.013064 C    31 MOH     0.1166 ****
490 HC2    -3.958660  -18.777625   24.343990 H    31 MOH     0.0372 ****
491 HC3    -5.593139  -19.417350   24.595012 H    31 MOH     0.0372 ****
492 O1     -5.429171  -17.421832   24.282471 O    31 MOH    -0.6497 ****
493 HO1    -6.198779  -17.230364   23.741534 H    31 MOH     0.4215 ****
494 HC1     5.947516   -9.461399   28.435309 H    32 MOH     0.0372 ****
495 C1      5.281831   -8.602444   28.520162 C    32 MOH     0.1166 ****
496 HC2     4.239714   -8.922511   28.513091 H    32 MOH     0.0372 ****
497 HC3     5.416931   -7.977825   27.637693 H    32 MOH     0.0372 ****
498 O1      5.507575   -7.805544   29.723658 O    32 MOH    -0.6497 ****
499 HO1     5.434829   -8.372601   30.493697 H    32 MOH     0.4215 ****
500 HC1    -1.728933  -16.847835   23.337777 H    33 MOH     0.0372 ****
501 C1     -2.269333  -15.978266   22.964424 C    33 MOH     0.1166 ****
502 HC2    -2.712738  -16.307723   22.024679 H    33 MOH     0.0372 ****
503 HC3    -1.546491  -15.175242   22.818053 H    33 MOH     0.0372 ****
504 O1     -3.260644  -15.639829   23.957909 O    33 MOH    -0.6497 ****
505 HO1    -3.896306  -16.353855   24.040641 H    33 MOH     0.4215 ****
506 HC1    -3.285470  -23.619858   19.028668 H    34 MOH     0.0372 ****
507 C1     -2.872664  -22.612301   18.991898 C    34 MOH     0.1166 ****
508 HC2    -2.958112  -22.141591   19.971241 H    34 MOH     0.0372 ****
509 HC3    -3.449437  -22.024424   18.277720 H    34 MOH     0.0372 ****
510 O1     -1.533212  -22.667823   18.560563 O    34 MOH    -0.6497 ****
511 HO1    -1.499725  -23.328369   17.864770 H    34 MOH     0.4215 ****
512 HC1     2.888137   -5.207452   31.168984 H    35 MOH     0.0372 ****
513 C1      2.433762   -4.909430   30.224289 C    35 MOH     0.1166 ****
514 HC2     1.352962   -5.044152   30.272373 H    35 MOH     0.0372 ****
515 HC3     2.856382   -5.534050   29.436573 H    35 MOH     0.0372 ****
516 O1      2.715509   -3.552005   29.964781 O    35 MOH    -0.6497 ****
517 HO1     2.445886   -3.357679   29.063927 H    35 MOH     0.4215 ****
518 HC1     3.929099   -2.293784   34.292275 H    36 MOH     0.0372 ****
519 C1      3.587308   -2.963311   33.503144 C    36 MOH     0.1166 ****
520 HC2     3.089055   -3.839412   33.918922 H    36 MOH     0.0372 ****
521 HC3     4.459684   -3.281336   32.932508 H    36 MOH     0.0372 ****
522 O1      2.806153   -2.233363   32.581076 O    36 MOH    -0.6497 ****
523 HO1     2.833288   -2.720403   31.754469 H    36 MOH     0.4215 ****
524 HC1     6.695762  -18.999712   29.961246 H    37 MOH     0.0372 ****
525 C1      6.555466  -19.154030   28.892100 C    37 MOH     0.1166 ****
526 HC2     6.359167  -18.199545   28.402783 H    37 MOH     0.0372 ****
527 HC3     5.721194  -19.832947   28.716031 H    37 MOH     0.0372 ****
528 O1      7.730951  -19.708431   28.340557 O    37 MOH    -0.6497 ****
529 HO1     8.377583  -19.809268   29.042714 H    37 MOH     0.4215 ****
530 HC1     9.458960  -10.963344   31.251716 H    38 MOH     0.0372 ****
531 C1      9.941625  -11.929260   31.104638 C    38 MOH     0.1166 ****
532 HC2     9.168553  -12.683294   30.956852 H    38 MOH     0.0372 ****
533 HC3    10.506273  -12.171759   32.004077 H    38 MOH     0.0372 ****
534 O1     10.849797  -11.901499   29.981752 O    38 MOH    -0.6497 ****
535 HO1    11.561092  -11.297291   30.210855 H    38 MOH     0.4215 ****
536 HC1     4.151957  -19.205877   22.592486 H    39 MOH     0.0372 ****
537 C1      3.990876  -20.218741   22.960889 C    39 MOH     0.1166 ****
538 HC2     3.239743  -20.173834   23.748606 H    39 MOH     0.0372 ****
539 HC3     4.915791  -20.619233   23.375960 H    39 MOH     0.0372 ****
540 O1      3.539388  -21.065448   21.904471 O    39 MOH    -0.6497 ****
541 HO1     3.944110  -21.923586   22.054378 H    39 MOH     0.4215 ****
542 HC1     7.953231   -6.161936   22.379647 H    40 MOH     0.0372 ****
543 C1      7.372416   -5.780632   23.219690 C    40 MOH     0.1166 ****
544 HC2     7.669752   -4.773484   23.511725 H    40 MOH     0.0372 ****
545 HC3     7.580262   -6.435871   24.066097 H    40 MOH     0.0372 ****
546 O1      5.993127   -5.824315   22.934726 O    40 MOH    -0.6497 ****
547 HO1     5.587827   -6.499149   23.484148 H    40 MOH     0.4215 ****
548 HC1     6.885710  -15.159729   28.156709 H    41 MOH     0.0372 ****
549 C1      5.822231  -14.958870   28.025187 C    41 MOH     0.1166 ****
550 HC2     5.240262  -15.879879   28.052058 H    41 MOH     0.0372 ****
551 HC3     5.657109  -14.488160   27.055744 H    41 MOH     0.0372 ****
552 O1      5.371898  -14.068481   29.004530 O    41 MOH    -0.6497 ****
553 HO1     5.482171  -13.174009   28.674311 H    41 MOH     0.4215 ****
554 HC1    10.598650  -12.232180   25.360102 H    42 MOH     0.0372 ****
555 C1     10.194504  -11.886394   24.409043 C    42 MOH     0.1166 ****
556 HC2     9.261506  -12.409768   24.196911 H    42 MOH     0.0372 ****
557 HC3    10.915615  -12.031322   23.605063 H    42 MOH     0.0372 ****
558 O1      9.947976  -10.520395   24.563193 O    42 MOH    -0.6497 ****
559 HO1    10.772432  -10.064790   24.751283 H    42 MOH     0.4215 ****
560 HC1     5.796250  -11.560203   22.896542 H    43 MOH     0.0372 ****
561 C1      5.558959  -11.846794   23.921847 C    43 MOH     0.1166 ****
562 HC2     6.321061  -12.509381   24.331262 H    43 MOH     0.0372 ****
563 HC3     4.605754  -12.375475   23.902755 H    43 MOH     0.0372 ****
564 O1      5.457345  -10.720437   24.759768 O    43 MOH    -0.6497 ****
565 HO1     6.230995  -10.163994   24.640267 H    43 MOH     0.4215 ****
566 HC1    12.838191  -10.344848   23.693451 H    44 MOH     0.0372 ****
567 C1     13.258502   -9.461399   24.174284 C    44 MOH     0.1166 ****
568 HC2    13.511959   -8.719612   23.416973 H    44 MOH     0.0372 ****
569 HC3    14.145312   -9.744315   24.740677 H    44 MOH     0.0372 ****
570 O1     12.253335   -8.964969   24.997356 O    44 MOH    -0.6497 ****
571 HO1    12.609561   -8.768602   25.866390 H    44 MOH     0.4215 ****
572 HC1     7.189396   -8.037021   36.269345 H    45 MOH     0.0372 ****
573 C1      7.146672   -7.162961   35.619514 C    45 MOH     0.1166 ****
574 HC2     7.947457   -6.462815   35.857809 H    45 MOH     0.0372 ****
575 HC3     6.207323   -6.646935   35.814676 H    45 MOH     0.0372 ****
576 O1      7.147250   -7.517320   34.227928 O    45 MOH    -0.6497 ****
577 HO1     7.256369   -6.724911   33.696891 H    45 MOH     0.4215 ****
578 HC1     1.503073  -12.306481   24.883512 H    46 MOH     0.0372 ****
579 C1      0.920527  -13.179316   25.179083 C    46 MOH     0.1166 ****
580 HC2     1.256545  -14.094201   24.691886 H    46 MOH     0.0372 ****
581 HC3    -0.099651  -12.999279   24.841793 H    46 MOH     0.0372 ****
582 O1      0.913599  -13.326285   26.581982 O    46 MOH    -0.6497 ****
583 HO1     0.727115  -12.464473   26.963113 H    46 MOH     0.4215 ****
584 HC1     0.672266  -15.320987   29.154437 H    47 MOH     0.0372 ****
585 C1      1.703991  -15.604719   28.948669 C    47 MOH     0.1166 ****
586 HC2     1.974769  -16.430605   29.605571 H    47 MOH     0.0372 ****
587 HC3     2.352356  -14.753930   29.159387 H    47 MOH     0.0372 ****
588 O1      1.841978  -15.923969   27.586781 O    47 MOH    -0.6497 ****
589 HO1     1.545220  -15.131151   27.134233 H    47 MOH     0.4215 ****
590 HC1     6.166332  -16.048485   23.467884 H    48 MOH     0.0372 ****
591 C1      6.180765  -15.340991   22.638448 C    48 MOH     0.1166 ****
592 HC2     5.190032  -14.909881   22.497027 H    48 MOH     0.0372 ****
593 HC3     6.519670  -15.834155   21.727694 H    48 MOH     0.0372 ****
594 O1      7.057760  -14.289343   22.945332 O    48 MOH    -0.6497 ****
595 HO1     7.254059  -14.282403   23.885077 H    48 MOH     0.4215 ****
596 HC1    -2.630754  -19.504715   21.251812 H    49 MOH     0.0372 ****
597 C1     -1.842671  -19.470422   20.499450 C    49 MOH     0.1166 ****
598 HC2    -2.262982  -19.078912   19.572433 H    49 MOH     0.0372 ****
599 HC3    -1.444877  -20.468181   20.312774 H    49 MOH     0.0372 ****
600 O1     -0.836350  -18.570235   20.849468 O    49 MOH    -0.6497 ****
601 HO1    -0.009007  -19.035230   20.705925 H    49 MOH     0.4215 ****
602 HC1     0.572962  -20.125253   18.533693 H    50 MOH     0.0372 ****
603 C1      1.003088  -20.695167   19.358180 C    50 MOH     0.1166 ****
604 HC2     1.778470  -21.338975   18.943108 H    50 MOH     0.0372 ****
605 HC3     0.257729  -21.343874   19.818506 H    50 MOH     0.0372 ****
606 O1      1.572356  -19.800695   20.297925 O    50 MOH    -0.6497 ****
607 HO1     1.986893  -20.339991   20.974626 H    50 MOH     0.4215 ****
608 HC1    10.920234  -11.409968   20.819062 H    51 MOH     0.0372 ****
609 C1     11.663861  -11.930893   20.216607 C    51 MOH     0.1166 ****
610 HC2    12.579538  -11.341382   20.168524 H    51 MOH     0.0372 ****
611 HC3    11.327843  -12.052143   19.186353 H    51 MOH     0.0372 ****
612 O1     12.002188  -13.159720   20.800678 O    51 MOH    -0.6497 ****
613 HO1    11.298398  -13.431205   21.393940 H    51 MOH     0.4215 ****
614 HC1    11.636148  -17.087069   25.478896 H    52 MOH     0.0372 ****
615 C1     11.596888  -18.156679   25.273835 C    52 MOH     0.1166 ****
616 HC2    10.818620  -18.584932   25.905281 H    52 MOH     0.0372 ****
617 HC3    12.565682  -18.593097   25.517787 H    52 MOH     0.0372 ****
618 O1     11.308213  -18.448577   23.905583 O    52 MOH    -0.6497 ****
619 HO1    11.737762  -19.263032   23.633347 H    52 MOH     0.4215 ****
620 HC1    15.797689  -18.406935   23.232418 H    53 MOH     0.0372 ****
621 C1     15.275187  -17.477762   23.460106 C    53 MOH     0.1166 ****
622 HC2    14.242885  -17.690868   23.738706 H    53 MOH     0.0372 ****
623 HC3    15.315601  -16.831505   22.584001 H    53 MOH     0.0372 ****
624 O1     15.962811  -16.914380   24.526423 O    53 MOH    -0.6497 ****
625 HO1    16.425269  -17.629631   24.969072 H    53 MOH     0.4215 ****
626 HC1    10.670818  -16.262407   22.851287 H    54 MOH     0.0372 ****
627 C1      9.733779  -16.006436   22.358434 C    54 MOH     0.1166 ****
628 HC2     8.895466  -16.338341   22.971495 H    54 MOH     0.0372 ****
629 HC3     9.715304  -16.505315   21.389697 H    54 MOH     0.0372 ****
630 O1      9.703179  -14.622882   22.141352 O    54 MOH    -0.6497 ****
631 HO1     8.786924  -14.381607   21.989324 H    54 MOH     0.4215 ****
632 HC1     7.341239  -20.972368   21.143624 H    55 MOH     0.0372 ****
633 C1      7.646658  -21.952572   20.776636 C    55 MOH     0.1166 ****
634 HC2     8.595822  -21.872963   20.247013 H    55 MOH     0.0372 ****
635 HC3     6.879937  -22.344898   20.109834 H    55 MOH     0.0372 ****
636 O1      7.800233  -22.873172   21.850731 O    55 MOH    -0.6497 ****
637 HO1     8.649515  -23.307140   21.742544 H    55 MOH     0.4215 ****
638 HC1    -3.531998   -9.728393   30.517032 H    56 MOH     0.0372 ****
639 C1     -2.669437   -9.265440   30.037613 C    56 MOH     0.1166 ****
640 HC2    -1.882509   -9.150722   30.783611 H    56 MOH     0.0372 ****
641 HC3    -2.986402   -8.273396   29.715173 H    56 MOH     0.0372 ****
642 O1     -2.286654  -10.052951   28.878665 O    56 MOH    -0.6497 ****
643 HO1    -2.980629  -10.006819   28.217520 H    56 MOH     0.4215 ****
644 HC1     4.627116  -17.296908   16.068719 H    57 MOH     0.0372 ****
645 C1      5.550876  -17.108706   15.520711 C    57 MOH     0.1166 ****
646 HC2     6.141506  -18.023590   15.558188 H    57 MOH     0.0372 ****
647 HC3     6.073378  -16.285269   16.007908 H    57 MOH     0.0372 ****
648 O1      5.277790  -16.756388   14.166602 O    57 MOH    -0.6497 ****
649 HO1     6.059522  -16.334259   13.803149 H    57 MOH     0.4215 ****
650 HC1     8.734963   -8.041103   26.089836 H    58 MOH     0.0372 ****
651 C1      7.719981   -8.424448   25.985891 C    58 MOH     0.1166 ****
652 HC2     6.998871   -7.607135   26.007105 H    58 MOH     0.0372 ****
653 HC3     7.485000   -9.119287   26.791993 H    58 MOH     0.0372 ****
654 O1      7.592387   -9.136433   24.803609 O    58 MOH    -0.6497 ****
655 HO1     8.312920   -9.769626   24.771789 H    58 MOH     0.4215 ****
656 HC1     8.268464  -22.375109   26.162668 H    59 MOH     0.0372 ****
657 C1      7.770211  -23.150781   25.582841 C    59 MOH     0.1166 ****
658 HC2     8.497095  -23.896242   25.260400 H    59 MOH     0.0372 ****
659 HC3     7.307753  -22.676804   24.716635 H    59 MOH     0.0372 ****
660 O1      6.795066  -23.781524   26.379750 O    59 MOH    -0.6497 ****
661 HO1     7.266761  -24.150581   27.129283 H    59 MOH     0.4215 ****
662 HC1     7.592964  -10.676346   21.869116 H    60 MOH     0.0372 ****
663 C1      8.185903  -11.014784   21.019881 C    60 MOH     0.1166 ****
664 HC2     8.553098  -12.010501   21.268075 H    60 MOH     0.0372 ****
665 HC3     9.032876  -10.344848   20.867853 H    60 MOH     0.0372 ****
666 O1      7.381654  -11.065815   19.849619 O    60 MOH    -0.6497 ****
667 HO1     7.788686  -11.716154   19.271913 H    60 MOH     0.4215 ****
668 HC1     3.349440  -10.355463   27.531627 H    61 MOH     0.0372 ****
669 C1      3.530728  -11.393638   27.810934 C    61 MOH     0.1166 ****
670 HC2     2.871394  -12.030914   27.221914 H    61 MOH     0.0372 ****
671 HC3     3.306138  -11.548364   28.866645 H    61 MOH     0.0372 ****
672 O1      4.860943  -11.789231   27.569811 O    61 MOH    -0.6497 ****
673 HO1     5.040499  -11.681045   26.632894 H    61 MOH     0.4215 ****
674 HC1     7.237894  -16.143607   31.190197 H    62 MOH     0.0372 ****
675 C1      7.691691  -15.264240   31.646988 C    62 MOH     0.1166 ****
676 HC2     8.528849  -14.947439   31.024734 H    62 MOH     0.0372 ****
677 HC3     7.995377  -15.513272   32.663808 H    62 MOH     0.0372 ****
678 O1      6.741372  -14.266481   31.611633 O    62 MOH    -0.6497 ****
679 HO1     6.413437  -14.210959   30.710779 H    62 MOH     0.4215 ****
680 HC1    -0.929303   -4.671013   28.860988 H    63 MOH     0.0372 ****
681 C1     -1.836898   -4.734700   29.460614 C    63 MOH     0.1166 ****
682 HC2    -2.447734   -5.581407   29.148073 H    63 MOH     0.0372 ****
683 HC3    -2.385958   -3.802669   29.328385 H    63 MOH     0.0372 ****
684 O1     -1.465084   -4.918004   30.785025 O    63 MOH    -0.6497 ****
685 HO1    -0.937964   -5.720620   30.783611 H    63 MOH     0.4215 ****
686 HC1     6.607427  -18.742516   23.837701 H    64 MOH     0.0372 ****
687 C1      7.534652  -18.919287   24.381466 C    64 MOH     0.1166 ****
688 HC2     7.468834  -19.843969   24.954930 H    64 MOH     0.0372 ****
689 HC3     7.758086  -18.082786   25.044025 H    64 MOH     0.0372 ****
690 O1      8.538086  -19.021349   23.450914 O    64 MOH    -0.6497 ****
691 HO1     9.348109  -18.680462   23.837701 H    64 MOH     0.4215 ****
692 HC1     4.510491  -18.598404   18.564806 H    65 MOH     0.0372 ****
693 C1      4.790506  -19.506756   19.098671 C    65 MOH     0.1166 ****
694 HC2     5.598796  -20.002370   18.561270 H    65 MOH     0.0372 ****
695 HC3     3.959699  -20.212618   19.122006 H    65 MOH     0.0372 ****
696 O1      5.228137  -19.245477   20.418133 O    65 MOH    -0.6497 ****
697 HO1     4.880573  -19.950114   20.969676 H    65 MOH     0.4215 ****
698 HC1    15.454165  -16.299966   27.990539 H    66 MOH     0.0372 ****
699 C1     14.444380  -16.620849   27.734567 C    66 MOH     0.1166 ****
700 HC2    13.746941  -16.190147   28.453694 H    66 MOH     0.0372 ****
701 HC3    14.362973  -17.707198   27.769215 H    66 MOH     0.0372 ****
702 O1     14.089309  -16.161570   26.462482 O    66 MOH    -0.6497 ****
703 HO1    14.688022  -16.569002   25.833157 H    66 MOH     0.4215 ****
704 HC1    11.257406   -9.191547   29.264746 H    67 MOH     0.0372 ****
705 C1     10.764926   -8.755129   28.395711 C    67 MOH     0.1166 ****
706 HC2     9.822691   -8.267681   28.646027 H    67 MOH     0.0372 ****
707 HC3    10.512624   -9.589589   27.740931 H    67 MOH     0.0372 ****
708 O1     11.602662   -7.830039   27.695676 O    67 MOH    -0.6497 ****
709 HO1    11.061684   -7.130301   27.323738 H    67 MOH     0.4215 ****
710 HC1    10.132728  -16.027664   28.910485 H    68 MOH     0.0372 ****
711 C1     10.796103  -16.849468   29.179893 C    68 MOH     0.1166 ****
712 HC2    11.812240  -16.463265   29.257675 H    68 MOH     0.0372 ****
713 HC3    10.782247  -17.632080   28.421167 H    68 MOH     0.0372 ****
714 O1     10.417939  -17.276496   30.466827 O    68 MOH    -0.6497 ****
715 HO1    10.471632  -16.507356   31.038170 H    68 MOH     0.4215 ****
716 HC1    13.912640   -9.828414   33.013826 H    69 MOH     0.0372 ****
717 C1     13.573158  -10.574284   32.294698 C    69 MOH     0.1166 ****
718 HC2    13.066822  -11.411601   32.776238 H    69 MOH     0.0372 ****
719 HC3    14.459968  -10.971101   31.799724 H    69 MOH     0.0372 ****
720 O1     12.731959   -9.953746   31.340104 O    69 MOH    -0.6497 ****
721 HO1    13.261389   -9.268706   30.924325 H    69 MOH     0.4215 ****
722 HC1     4.619033  -17.064615   24.032863 H    70 MOH     0.0372 ****
723 C1      3.988566  -17.378150   24.864420 C    70 MOH     0.1166 ****
724 HC2     3.012267  -17.690868   24.493896 H    70 MOH     0.0372 ****
725 HC3     3.818248  -16.551039   25.554556 H    70 MOH     0.0372 ****
726 O1      4.590743  -18.432247   25.560213 O    70 MOH    -0.6497 ****
727 HO1     3.940069  -18.786606   26.169739 H    70 MOH     0.4215 ****
728 HC1     7.281195  -12.332201   27.176659 H    71 MOH     0.0372 ****
729 C1      7.937642  -12.056633   28.001853 C    71 MOH     0.1166 ****
730 HC2     7.390891  -12.092559   28.945133 H    71 MOH     0.0372 ****
731 HC3     8.284052  -11.033971   27.851239 H    71 MOH     0.0372 ****
732 O1      9.056547  -12.928652   28.066907 O    71 MOH    -0.6497 ****
733 HO1     9.661610  -12.602053   28.737244 H    71 MOH     0.4215 ****
734 HC1    11.057643   -7.617341   34.944227 H    72 MOH     0.0372 ****
735 C1     10.745874   -8.036204   35.901650 C    72 MOH     0.1166 ****
736 HC2    10.218753   -7.289926   36.494205 H    72 MOH     0.0372 ****
737 HC3    11.638457   -8.369743   36.429859 H    72 MOH     0.0372 ****
738 O1      9.931233   -9.150314   35.674669 O    72 MOH    -0.6497 ****
739 HO1     9.245340   -8.909039   35.048879 H    72 MOH     0.4215 ****
740 HC1     3.737419   -2.223157   27.224742 H    73 MOH     0.0372 ****
741 C1      2.829824   -1.843486   26.755224 C    73 MOH     0.1166 ****
742 HC2     2.960306   -1.863490   25.672643 H    73 MOH     0.0372 ****
743 HC3     2.686641   -0.812659   27.076957 H    73 MOH     0.0372 ****
744 O1      1.689558   -2.636712   27.129283 O    73 MOH    -0.6497 ****
745 HO1     0.916486   -2.131709   26.866946 H    73 MOH     0.4215 ****
746 HC1     5.894977  -10.693084   33.736489 H    74 MOH     0.0372 ****
747 C1      6.476946  -10.450584   32.846949 C    74 MOH     0.1166 ****
748 HC2     6.440573  -11.272388   32.132064 H    74 MOH     0.0372 ****
749 HC3     7.504052  -10.307289   33.184239 H    74 MOH     0.0372 ****
750 O1      6.011024   -9.206244   32.315204 O    74 MOH    -0.6497 ****
751 HO1     6.426716   -8.528960   32.853313 H    74 MOH     0.4215 ****
752 HC1     3.111571  -15.364261   22.072055 H    75 MOH     0.0372 ****
753 C1      2.978203  -16.386923   21.719209 C    75 MOH     0.1166 ****
754 HC2     1.979387  -16.464490   21.290702 H    75 MOH     0.0372 ****
755 HC3     3.051527  -17.103807   22.536625 H    75 MOH     0.0372 ****
756 O1      3.898500  -16.664124   20.707339 O    75 MOH    -0.6497 ****
757 HO1     4.014547  -17.612076   20.615416 H    75 MOH     0.4215 ****
758 HC1     5.298574  -24.638846   21.029780 H    76 MOH     0.0372 ****
759 C1      4.561875  -24.293059   21.754565 C    76 MOH     0.1166 ****
760 HC2     4.291098  -25.100983   22.435508 H    76 MOH     0.0372 ****
761 HC3     3.653126  -23.993405   21.234134 H    76 MOH     0.0372 ****
762 O1      5.001816  -23.211610   22.548646 O    76 MOH    -0.6497 ****
763 HO1     5.949248  -23.280195   22.684410 H    76 MOH     0.4215 ****
764 HC1     6.247161   -8.083561   21.381919 H    77 MOH     0.0372 ****
765 C1      5.399610   -8.748189   21.551625 C    77 MOH     0.1166 ****
766 HC2     4.534162   -8.104382   21.707895 H    77 MOH     0.0372 ****
767 HC3     5.632283   -9.349947   22.429851 H    77 MOH     0.0372 ****
768 O1      5.266243   -9.449968   20.336108 O    77 MOH    -0.6497 ****
769 HO1     6.112061   -9.855767   20.131047 H    77 MOH     0.4215 ****
770 HC1    -4.386477  -13.393646   27.480715 H    78 MOH     0.0372 ****
771 C1     -4.552754  -12.323219   27.599509 C    78 MOH     0.1166 ****
772 HC2    -4.199415  -12.002336   28.579559 H    78 MOH     0.0372 ****
773 HC3    -5.619697  -12.110114   27.527384 H    78 MOH     0.0372 ****
774 O1     -3.865707  -11.608785   26.589761 O    78 MOH    -0.6497 ****
775 HO1    -3.956351  -12.138691   25.794973 H    78 MOH     0.4215 ****
776 HC1     2.276723   -7.077637   24.631782 H    79 MOH     0.0372 ****
777 C1      3.147944   -7.732876   24.612690 C    79 MOH     0.1166 ****
778 HC2     3.147367   -8.304423   23.684966 H    79 MOH     0.0372 ****
779 HC3     3.120232   -8.442003   25.440712 H    79 MOH     0.0372 ****
780 O1      4.326316   -6.948222   24.686229 O    79 MOH    -0.6497 ****
781 HO1     4.296871   -6.437504   25.498695 H    79 MOH     0.4215 ****
782 HC1    16.025165  -12.706156   24.587234 H    80 MOH     0.0372 ****
783 C1     15.578296  -12.292193   23.683552 C    80 MOH     0.1166 ****
784 HC2    14.550612  -11.973351   23.855379 H    80 MOH     0.0372 ****
785 HC3    15.608895  -13.064598   22.914220 H    80 MOH     0.0372 ****
786 O1     16.388895  -11.227889   23.295350 O    80 MOH    -0.6497 ****
787 HO1    16.570761  -10.681653   24.063268 H    80 MOH     0.4215 ****
788 HC1     9.251114  -14.958462   19.181403 H    81 MOH     0.0372 ****
789 C1      8.326776  -14.443253   18.919773 C    81 MOH     0.1166 ****
790 HC2     7.613749  -14.490201   19.743553 H    81 MOH     0.0372 ****
791 HC3     7.890877  -14.889468   18.026698 H    81 MOH     0.0372 ****
792 O1      8.564645  -13.093992   18.640466 O    81 MOH    -0.6497 ****
793 HO1     9.069249  -13.063782   17.824465 H    81 MOH     0.4215 ****
794 HC1     0.973066   -7.765127   29.233633 H    82 MOH     0.0372 ****
795 C1      0.602407   -8.161945   30.178328 C    82 MOH     0.1166 ****
796 HC2     1.456885   -8.284827   30.843715 H    82 MOH     0.0372 ****
797 HC3     0.130712   -9.137658   30.062362 H    82 MOH     0.0372 ****
798 O1     -0.252649   -7.226648   30.740477 O    82 MOH    -0.6497 ****
799 HO1    -0.067897   -7.225015   31.682344 H    82 MOH     0.4215 ****
800 HC1    -0.489362  -25.178142   19.720925 H    83 MOH     0.0372 ****
801 C1      0.024479  -24.869098   20.630972 C    83 MOH     0.1166 ****
802 HC2     1.107589  -24.895226   20.515006 H    83 MOH     0.0372 ****
803 HC3    -0.278629  -25.508414   21.461115 H    83 MOH     0.0372 ****
804 O1     -0.414884  -23.611693   20.913815 O    83 MOH    -0.6497 ****
805 HO1    -0.746860  -23.249577   20.088621 H    83 MOH     0.4215 ****
806 HC1     0.970756   -6.351363   26.158425 H    84 MOH     0.0372 ****
807 C1      1.537137   -6.046402   27.038773 C    84 MOH     0.1166 ****
808 HC2     1.922807   -6.940057   27.530213 H    84 MOH     0.0372 ****
809 HC3     0.882999   -5.522619   27.735274 H    84 MOH     0.0372 ****
810 O1      2.631793   -5.231947   26.633601 O    84 MOH    -0.6497 ****
811 HO1     2.280764   -4.356662   26.456825 H    84 MOH     0.4215 ****
812 HC1     1.362200  -21.969310   23.454449 H    85 MOH     0.0372 ****
813 C1      0.480009  -21.385923   23.715372 C    85 MOH     0.1166 ****
814 HC2     0.784272  -20.387348   24.026499 H    85 MOH     0.0372 ****
815 HC3    -0.055195  -21.875821   24.528544 H    85 MOH     0.0372 ****
816 O1     -0.340983  -21.330810   22.547938 O    85 MOH    -0.6497 ****
817 HO1    -0.431627  -22.219566   22.195092 H    85 MOH     0.4215 ****
818 HC1     8.205533   -8.223998   31.366267 H    86 MOH     0.0372 ****
819 C1      9.151232   -7.881070   31.786288 C    86 MOH     0.1166 ****
820 HC2     9.037494   -6.906581   32.262171 H    86 MOH     0.0372 ****
821 HC3     9.881003   -7.767577   30.984429 H    86 MOH     0.0372 ****
822 O1      9.592905   -8.803303   32.758560 O    86 MOH    -0.6497 ****
823 HO1    10.424290   -9.191547   32.476425 H    86 MOH     0.4215 ****
824 HC1     8.123549  -16.289760   26.437026 H    87 MOH     0.0372 ****
825 C1      8.905281  -15.616558   26.085594 C    87 MOH     0.1166 ****
826 HC2     9.464734  -16.051343   25.257572 H    87 MOH     0.0372 ****
827 HC3     9.590596  -15.411618   26.907252 H    87 MOH     0.0372 ****
828 O1      8.331395  -14.417125   25.640116 O    87 MOH    -0.6497 ****
829 HO1     8.526539  -13.773726   26.326010 H    87 MOH     0.4215 ****
830 HC1    13.023405    6.451140   26.708555 H    88 MOH     0.0372 ****
831 C1     11.987062    6.589944   27.015439 C    88 MOH     0.1166 ****
832 HC2    11.423568    6.954102   26.157011 H    88 MOH     0.0372 ****
833 HC3    11.917202    7.339896   27.803863 H    88 MOH     0.0372 ****
834 O1     11.461673    5.347236   27.432632 O    88 MOH    -0.6497 ****
835 HO1    10.698993    5.499513   27.994782 H    88 MOH     0.4215 ****
836 HC1     7.521834   -4.089831   30.799874 H    89 MOH     0.0372 ****
837 C1      6.721050   -4.483791   31.425664 C    89 MOH     0.1166 ****
838 HC2     6.155246   -5.214147   30.846543 H    89 MOH     0.0372 ****
839 HC3     6.048437   -3.706894   31.786995 H    89 MOH     0.0372 ****
840 O1      7.218148   -5.224761   32.470061 O    89 MOH    -0.6497 ****
841 HO1     7.762590   -4.628719   32.989077 H    89 MOH     0.4215 ****
842 HC1    19.252437   -8.955334   21.893158 H    90 MOH     0.0372 ****
843 C1     19.065376   -9.941254   22.318129 C    90 MOH     0.1166 ****
844 HC2    18.673355   -9.846540   23.330706 H    90 MOH     0.0372 ****
845 HC3    20.022623  -10.457688   22.386718 H    90 MOH     0.0372 ****
846 O1     18.224177  -10.745095   21.468893 O    90 MOH    -0.6497 ****
847 HO1    17.508262  -11.091289   22.006295 H    90 MOH     0.4215 ****
848 HC1    20.777219   -1.407640   18.916238 H    91 MOH     0.0372 ****
849 C1     19.985095   -1.939996   19.442325 C    91 MOH     0.1166 ****
850 HC2    20.012230   -1.682391   20.500864 H    91 MOH     0.0372 ****
851 HC3    20.150794   -3.007565   19.300197 H    91 MOH     0.0372 ****
852 O1     18.756493   -1.524399   18.886539 O    91 MOH    -0.6497 ****
853 HO1    18.061941   -1.883249   19.444447 H    91 MOH     0.4215 ****
854 HC1    21.473504    6.483391   17.796888 H    92 MOH     0.0372 ****
855 C1     22.011017    6.825912   16.912297 C    92 MOH     0.1166 ****
856 HC2    21.683082    6.251914   16.045384 H    92 MOH     0.0372 ****
857 HC3    23.070455    6.641383   17.090488 H    92 MOH     0.0372 ****
858 O1     21.750632    8.206607   16.643597 O    92 MOH    -0.6497 ****
859 HO1    22.009862    8.411548   15.742743 H    92 MOH     0.4215 ****
860 HC1    15.932096    3.626470   20.865731 H    93 MOH     0.0372 ****
861 C1     15.977707    3.171681   19.875782 C    93 MOH     0.1166 ****
862 HC2    16.895116    2.592785   19.766887 H    93 MOH     0.0372 ****
863 HC3    15.967314    3.949394   19.112814 H    93 MOH     0.0372 ****
864 O1     14.874390    2.335180   19.658700 O    93 MOH    -0.6497 ****
865 HO1    15.133621    1.447649   19.916087 H    93 MOH     0.4215 ****
866 HC1    24.039248   -0.930398   19.361008 H    94 MOH     0.0372 ****
867 C1     24.237857    0.030211   19.835477 C    94 MOH     0.1166 ****
868 HC2    25.302491    0.247399   19.752038 H    94 MOH     0.0372 ****
869 HC3    24.008649   -0.004899   20.900380 H    94 MOH     0.0372 ****
870 O1     23.444578    1.025928   19.184231 O    94 MOH    -0.6497 ****
871 HO1    23.491920    1.802008   19.747796 H    94 MOH     0.4215 ****
872 HC1     6.733751    2.465003   31.966601 H    95 MOH     0.0372 ****
873 C1      7.774137    2.492356   31.640624 C    95 MOH     0.1166 ****
874 HC2     8.358415    1.852631   32.303183 H    95 MOH     0.0372 ****
875 HC3     8.115351    3.526041   31.694364 H    95 MOH     0.0372 ****
876 O1      7.841109    2.010215   30.317628 O    95 MOH    -0.6497 ****
877 HO1     7.246438    1.257405   30.273787 H    95 MOH     0.4215 ****
878 HC1     9.614152   -2.217196   27.806691 H    96 MOH     0.0372 ****
879 C1     10.528675   -1.911010   27.298989 C    96 MOH     0.1166 ****
880 HC2    11.123923   -1.256588   27.936092 H    96 MOH     0.0372 ****
881 HC3    10.253279   -1.364774   26.396721 H    96 MOH     0.0372 ****
882 O1     11.230733   -3.050431   26.900888 O    96 MOH    -0.6497 ****
883 HO1    12.165463   -2.851614   26.990690 H    96 MOH     0.4215 ****
884 HC1    22.880506   -6.397659   24.372981 H    97 MOH     0.0372 ****
885 C1     22.927849   -5.674243   25.187568 C    97 MOH     0.1166 ****
886 HC2    22.134570   -4.946744   25.016448 H    97 MOH     0.0372 ****
887 HC3    23.888560   -5.160666   25.140899 H    97 MOH     0.0372 ****
888 O1     22.742520   -6.316009   26.481573 O    97 MOH    -0.6497 ****
889 HO1    22.550839   -5.640358   27.137061 H    97 MOH     0.4215 ****
890 HC1     6.559969   -2.554818   22.950989 H    98 MOH     0.0372 ****
891 C1      6.602693   -2.313135   24.013064 C    98 MOH     0.1166 ****
892 HC2     7.639614   -2.375188   24.343990 H    98 MOH     0.0372 ****
893 HC3     6.005135   -3.014913   24.595012 H    98 MOH     0.0372 ****
894 O1      6.169103   -1.019396   24.282471 O    98 MOH    -0.6497 ****
895 HO1     5.399495   -0.827927   23.741534 H    98 MOH     0.4215 ****
896 HC1     3.956697    1.382737   30.666231 H    99 MOH     0.0372 ****
897 C1      3.521952    0.497247   31.129386 C    99 MOH     0.1166 ****
898 HC2     3.109724   -0.177588   30.379146 H    99 MOH     0.0372 ****
899 HC3     2.699805    0.783429   31.786288 H    99 MOH     0.0372 ****
900 O1      4.427237   -0.205349   31.924881 O    99 MOH    -0.6497 ****
901 HO1     3.900694   -0.923049   32.285506 H    99 MOH     0.4215 ****
902 HC1     9.869341   -0.445399   23.337777 H    100 MOH     0.0372 ****
903 C1      9.328941    0.424170   22.964424 C    100 MOH     0.1166 ****
904 HC2     8.885536    0.094714   22.024679 H    100 MOH     0.0372 ****
905 HC3    10.051783    1.227195   22.818053 H    100 MOH     0.0372 ****
906 O1      8.337630    0.762608   23.957909 O    100 MOH    -0.6497 ****
907 HO1     7.701968    0.048582   24.040641 H    100 MOH     0.4215 ****
908 HC1     8.312804   -7.217421   19.028668 H    101 MOH     0.0372 ****
909 C1      8.725610   -6.209865   18.991898 C    101 MOH     0.1166 ****
910 HC2     8.640162   -5.739154   19.971241 H    101 MOH     0.0372 ****
911 HC3     8.148837   -5.621987   18.277720 H    101 MOH     0.0372 ****
912 O1     10.065063   -6.265386   18.560563 O    101 MOH    -0.6497 ****
913 HO1    10.098549   -6.925932   17.864770 H    101 MOH     0.4215 ****
914 HC1    18.294036   -2.597275   29.961246 H    102 MOH     0.0372 ****
915 C1     18.153740   -2.751593   28.892100 C    102 MOH     0.1166 ****
916 HC2    17.957441   -1.797109   28.402783 H    102 MOH     0.0372 ****
917 HC3    17.319469   -3.430510   28.716031 H    102 MOH     0.0372 ****
918 O1     19.329225   -3.305994   28.340557 O    102 MOH    -0.6497 ****
919 HO1    19.975857   -3.406832   29.042714 H    102 MOH     0.4215 ****
920 HC1    15.750231   -2.803441   22.592486 H    103 MOH     0.0372 ****
921 C1     15.589150   -3.816305   22.960889 C    103 MOH     0.1166 ****
922 HC2    14.838017   -3.771398   23.748606 H    103 MOH     0.0372 ****
923 HC3    16.514065   -4.216796   23.375960 H    103 MOH     0.0372 ****
924 O1     15.137662   -4.663012   21.904471 O    103 MOH    -0.6497 ****
925 HO1    15.542385   -5.521150   22.054378 H    103 MOH     0.4215 ****
926 HC1    19.551505   10.240500   22.379647 H    104 MOH     0.0372 ****
927 C1     18.970690   10.621804   23.219690 C    104 MOH     0.1166 ****
928 HC2    19.268026   11.628953   23.511725 H    104 MOH     0.0372 ****
929 HC3    19.178536    9.966566   24.066097 H    104 MOH     0.0372 ****
930 O1     17.591401   10.578122   22.934726 O    104 MOH    -0.6497 ****
931 HO1    17.186101    9.903287   23.484148 H    104 MOH     0.4215 ****
932 HC1     8.129207   -0.116351   33.405563 H    105 MOH     0.0372 ****
933 C1      7.737763   -0.885490   32.740883 C    105 MOH     0.1166 ****
934 HC2     8.237171   -0.851606   31.772853 H    105 MOH     0.0372 ****
935 HC3     6.666201   -0.723008   32.616432 H    105 MOH     0.0372 ****
936 O1      7.878637   -2.152285   33.325660 O    105 MOH    -0.6497 ****
937 HO1     7.432345   -2.152693   34.174895 H    105 MOH     0.4215 ****
938 HC1    18.483984    1.242708   28.156709 H    106 MOH     0.0372 ****
939 C1     17.420505    1.443566   28.025187 C    106 MOH     0.1166 ****
940 HC2    16.838536    0.522558   28.052058 H    106 MOH     0.0372 ****
941 HC3    17.255383    1.914276   27.055744 H    106 MOH     0.0372 ****
942 O1     16.970172    2.333956   29.004530 O    106 MOH    -0.6497 ****
943 HO1    17.080446    3.228428   28.674311 H    106 MOH     0.4215 ****
944 HC1    22.196924    4.170256   25.360102 H    107 MOH     0.0372 ****
945 C1     21.792778    4.516043   24.409043 C    107 MOH     0.1166 ****
946 HC2    20.859780    3.992668   24.196911 H    107 MOH     0.0372 ****
947 HC3    22.513889    4.371115   23.605063 H    107 MOH     0.0372 ****
948 O1     21.546250    5.882042   24.563193 O    107 MOH    -0.6497 ****
949 HO1    22.370706    6.337647   24.751283 H    107 MOH     0.4215 ****
950 HC1    17.964369   -7.085557   30.563701 H    108 MOH     0.0372 ****
951 C1     17.778462   -6.499721   29.663554 C    108 MOH     0.1166 ****
952 HC2    17.796360   -7.123524   28.769771 H    108 MOH     0.0372 ****
953 HC3    18.526131   -5.714251   29.554660 H    108 MOH     0.0372 ****
954 O1     16.536004   -5.911435   29.792954 O    108 MOH    -0.6497 ****
955 HO1    16.237514   -5.800800   28.887151 H    108 MOH     0.4215 ****
956 HC1    17.394524    4.842233   22.896542 H    109 MOH     0.0372 ****
957 C1     17.157233    4.555643   23.921847 C    109 MOH     0.1166 ****
958 HC2    17.919336    3.893056   24.331262 H    109 MOH     0.0372 ****
959 HC3    16.204028    4.026961   23.902755 H    109 MOH     0.0372 ****
960 O1     17.055620    5.682000   24.759768 O    109 MOH    -0.6497 ****
961 HO1    17.829269    6.238442   24.640267 H    109 MOH     0.4215 ****
962 HC1    15.085700  -10.140071   29.248482 H    110 MOH     0.0372 ****
963 C1     14.678668   -9.139454   29.103525 C    110 MOH     0.1166 ****
964 HC2    13.633087   -9.185178   28.798055 H    110 MOH     0.0372 ****
965 HC3    15.235234   -8.681808   28.286817 H    110 MOH     0.0372 ****
966 O1     14.833398   -8.315609   30.260352 O    110 MOH    -0.6497 ****
967 HO1    15.116300   -7.435426   30.000137 H    110 MOH     0.4215 ****
968 HC1    14.491607   -5.734664   31.470919 H    111 MOH     0.0372 ****
969 C1     14.579942   -4.748744   31.927003 C    111 MOH     0.1166 ****
970 HC2    13.978920   -4.716901   32.834928 H    111 MOH     0.0372 ****
971 HC3    14.227758   -4.013489   31.203632 H    111 MOH     0.0372 ****
972 O1     15.919971   -4.545028   32.234594 O    111 MOH    -0.6497 ****
973 HO1    16.404946   -5.011656   31.550822 H    111 MOH     0.4215 ****
974 HC1    13.101348    4.095955   24.883512 H    112 MOH     0.0372 ****
975 C1     12.518801    3.223120   25.179083 C    112 MOH     0.1166 ****
976 HC2    12.854819    2.308236   24.691886 H    112 MOH     0.0372 ****
977 HC3    11.498623    3.403158   24.841793 H    112 MOH     0.0372 ****
978 O1     12.511873    3.076151   26.581982 O    112 MOH    -0.6497 ****
979 HO1    12.325389    3.937963   26.963113 H    112 MOH     0.4215 ****
980 HC1    12.270540    1.081450   29.154437 H    113 MOH     0.0372 ****
981 C1     13.302265    0.797717   28.948669 C    113 MOH     0.1166 ****
982 HC2    13.573043   -0.028169   29.605571 H    113 MOH     0.0372 ****
983 HC3    13.950630    1.648507   29.159387 H    113 MOH     0.0372 ****
984 O1     13.440252    0.478467   27.586781 O    113 MOH    -0.6497 ****
985 HO1    13.143494    1.271285   27.134233 H    113 MOH     0.4215 ****
986 HC1    17.764606    0.353951   23.467884 H    114 MOH     0.0372 ****
987 C1     17.779039    1.061446   22.638448 C    114 MOH     0.1166 ****
988 HC2    16.788306    1.492556   22.497027 H    114 MOH     0.0372 ****
989 HC3    18.117944    0.568282   21.727694 H    114 MOH     0.0372 ****
990 O1     18.656035    2.113093   22.945332 O    114 MOH    -0.6497 ****
991 HO1    18.852334    2.120034   23.885077 H    114 MOH     0.4215 ****
992 HC1     8.967520   -3.102279   21.251812 H    115 MOH     0.0372 ****
993 C1      9.755603   -3.067986   20.499450 C    115 MOH     0.1166 ****
994 HC2     9.335292   -2.676476   19.572433 H    115 MOH     0.0372 ****
995 HC3    10.153397   -4.065745   20.312774 H    115 MOH     0.0372 ****
996 O1     10.761924   -2.167798   20.849468 O    115 MOH    -0.6497 ****
997 HO1    11.589267   -2.632793   20.705925 H    115 MOH     0.4215 ****
998 HC1    12.171236   -3.722816   18.533693 H    116 MOH     0.0372 ****
999 C1     12.601362   -4.292731   19.358180 C    116 MOH     0.1166 ****
1000 HC2    13.376744   -4.936538   18.943108 H    116 MOH     0.0372 ****
1001 HC3    11.856003   -4.941437   19.818506 H    116 MOH     0.0372 ****
1002 O1     13.170630   -3.398259   20.297925 O    116 MOH    -0.6497 ****
1003 HO1    13.585167   -3.937555   20.974626 H    116 MOH     0.4215 ****
1004 HC1    22.518508    4.992468   20.819062 H    117 MOH     0.0372 ****
1005 C1     23.262135    4.471544   20.216607 C    117 MOH     0.1166 ****
1006 HC2    24.177813    5.061054   20.168524 H    117 MOH     0.0372 ****
1007 HC3    22.926117    4.350294   19.186353 H    117 MOH     0.0372 ****
1008 O1     23.600462    3.242716   20.800678 O    117 MOH    -0.6497 ****
1009 HO1    22.896672    2.971231   21.393940 H    117 MOH     0.4215 ****
1010 HC1    23.234422   -0.684632   25.478896 H    118 MOH     0.0372 ****
1011 C1     23.195162   -1.754243   25.273835 C    118 MOH     0.1166 ****
1012 HC2    22.416894   -2.182495   25.905281 H    118 MOH     0.0372 ****
1013 HC3    24.163956   -2.190660   25.517787 H    118 MOH     0.0372 ****
1014 O1     22.906487   -2.046140   23.905583 O    118 MOH    -0.6497 ****
1015 HO1    23.336036   -2.860596   23.633347 H    118 MOH     0.4215 ****
1016 HC1    27.395963   -2.004499   23.232418 H    119 MOH     0.0372 ****
1017 C1     26.873461   -1.075326   23.460106 C    119 MOH     0.1166 ****
1018 HC2    25.841159   -1.288431   23.738706 H    119 MOH     0.0372 ****
1019 HC3    26.913875   -0.429069   22.584001 H    119 MOH     0.0372 ****
1020 O1     27.561085   -0.511943   24.526423 O    119 MOH    -0.6497 ****
1021 HO1    28.023543   -1.227194   24.969072 H    119 MOH     0.4215 ****
1022 HC1    22.269092    0.140029   22.851287 H    120 MOH     0.0372 ****
1023 C1     21.332053    0.396001   22.358434 C    120 MOH     0.1166 ****
1024 HC2    20.493740    0.064095   22.971495 H    120 MOH     0.0372 ****
1025 HC3    21.313578   -0.102878   21.389697 H    120 MOH     0.0372 ****
1026 O1     21.301453    1.779554   22.141352 O    120 MOH    -0.6497 ****
1027 HO1    20.385199    2.020829   21.989324 H    120 MOH     0.4215 ****
1028 HC1    12.322502   -0.562158   32.093173 H    121 MOH     0.0372 ****
1029 C1     11.312716   -0.162891   32.185097 C    121 MOH     0.1166 ****
1030 HC2    10.700148   -0.904270   32.698456 H    121 MOH     0.0372 ****
1031 HC3    10.911458    0.028986   31.189490 H    121 MOH     0.0372 ****
1032 O1     11.380844    1.025928   32.947358 O    121 MOH    -0.6497 ****
1033 HO1    11.715129    1.719134   32.373187 H    121 MOH     0.4215 ****
1034 HC1    18.939514   -4.569931   21.143624 H    122 MOH     0.0372 ****
1035 C1     19.244932   -5.550135   20.776636 C    122 MOH     0.1166 ****
1036 HC2    20.194096   -5.470527   20.247013 H    122 MOH     0.0372 ****
1037 HC3    18.478211   -5.942462   20.109834 H    122 MOH     0.0372 ****
1038 O1     19.398507   -6.470735   21.850731 O    122 MOH    -0.6497 ****
1039 HO1    20.247789   -6.904703   21.742544 H    122 MOH     0.4215 ****
1040 HC1     8.066276    6.674043   30.517032 H    123 MOH     0.0372 ****
1041 C1      8.928837    7.136997   30.037613 C    123 MOH     0.1166 ****
1042 HC2     9.715766    7.251715   30.783611 H    123 MOH     0.0372 ****
1043 HC3     8.611872    8.129040   29.715173 H    123 MOH     0.0372 ****
1044 O1      9.311620    6.349486   28.878665 O    123 MOH    -0.6497 ****
1045 HO1     8.617645    6.395618   28.217520 H    123 MOH     0.4215 ****
1046 HC1    16.225390   -0.894472   16.068719 H    124 MOH     0.0372 ****
1047 C1     17.149150   -0.706269   15.520711 C    124 MOH     0.1166 ****
1048 HC2    17.739780   -1.621154   15.558188 H    124 MOH     0.0372 ****
1049 HC3    17.671652    0.117167   16.007908 H    124 MOH     0.0372 ****
1050 O1     16.876064   -0.353951   14.166602 O    124 MOH    -0.6497 ****
1051 HO1    17.657796    0.068178   13.803149 H    124 MOH     0.4215 ****
1052 HC1    13.812066   -5.632601   26.979377 H    125 MOH     0.0372 ****
1053 C1     14.668854   -5.890614   26.355708 C    125 MOH     0.1166 ****
1054 HC2    14.854760   -5.097388   25.632338 H    125 MOH     0.0372 ****
1055 HC3    14.422902   -6.794476   25.798508 H    125 MOH     0.0372 ****
1056 O1     15.832214   -6.081266   27.156860 O    125 MOH    -0.6497 ****
1057 HO1    16.528499   -6.429094   26.595418 H    125 MOH     0.4215 ****
1058 HC1    19.866738   -5.972672   26.162668 H    126 MOH     0.0372 ****
1059 C1     19.368485   -6.748344   25.582841 C    126 MOH     0.1166 ****
1060 HC2    20.095369   -7.493805   25.260400 H    126 MOH     0.0372 ****
1061 HC3    18.906027   -6.274368   24.716635 H    126 MOH     0.0372 ****
1062 O1     18.393340   -7.379088   26.379750 O    126 MOH    -0.6497 ****
1063 HO1    18.865035   -7.748144   27.129283 H    126 MOH     0.4215 ****
1064 HC1    19.191238    5.726091   21.869116 H    127 MOH     0.0372 ****
1065 C1     19.784177    5.387653   21.019881 C    127 MOH     0.1166 ****
1066 HC2    20.151372    4.391935   21.268075 H    127 MOH     0.0372 ****
1067 HC3    20.631150    6.057588   20.867853 H    127 MOH     0.0372 ****
1068 O1     18.979928    5.336622   19.849619 O    127 MOH    -0.6497 ****
1069 HO1    19.386960    4.686282   19.271913 H    127 MOH     0.4215 ****
1070 HC1    14.947714    6.046974   27.531627 H    128 MOH     0.0372 ****
1071 C1     15.129002    5.008798   27.810934 C    128 MOH     0.1166 ****
1072 HC2    14.469668    4.371523   27.221914 H    128 MOH     0.0372 ****
1073 HC3    14.904412    4.854072   28.866645 H    128 MOH     0.0372 ****
1074 O1     16.459217    4.613206   27.569811 O    128 MOH    -0.6497 ****
1075 HO1    16.638773    4.721392   26.632894 H    128 MOH     0.4215 ****
1076 HC1    18.205701   -2.340079   23.837701 H    129 MOH     0.0372 ****
1077 C1     19.132926   -2.516851   24.381466 C    129 MOH     0.1166 ****
1078 HC2    19.067108   -3.441533   24.954930 H    129 MOH     0.0372 ****
1079 HC3    19.356360   -1.680350   25.044025 H    129 MOH     0.0372 ****
1080 O1     20.136361   -2.618913   23.450914 O    129 MOH    -0.6497 ****
1081 HO1    20.946383   -2.278025   23.837701 H    129 MOH     0.4215 ****
1082 HC1    16.108765   -2.195967   18.564806 H    130 MOH     0.0372 ****
1083 C1     16.388780   -3.104320   19.098671 C    130 MOH     0.1166 ****
1084 HC2    17.197070   -3.599933   18.561270 H    130 MOH     0.0372 ****
1085 HC3    15.557973   -3.810181   19.122006 H    130 MOH     0.0372 ****
1086 O1     16.826412   -2.843041   20.418133 O    130 MOH    -0.6497 ****
1087 HO1    16.478847   -3.547678   20.969676 H    130 MOH     0.4215 ****
1088 HC1    20.763363  -13.005974   25.742647 H    131 MOH     0.0372 ****
1089 C1     20.730454  -11.920850   25.643652 C    131 MOH     0.1166 ****
1090 HC2    21.175591  -11.451773   26.521171 H    131 MOH     0.0372 ****
1091 HC3    19.692956  -11.595068   25.568699 H    131 MOH     0.0372 ****
1092 O1     21.416346  -11.543628   24.478340 O    131 MOH    -0.6497 ****
1093 HO1    21.517960  -10.590369   24.518645 H    131 MOH     0.4215 ****
1094 HC1    16.217307   -0.662179   24.032863 H    132 MOH     0.0372 ****
1095 C1     15.586840   -0.975713   24.864420 C    132 MOH     0.1166 ****
1096 HC2    14.610541   -1.288431   24.493896 H    132 MOH     0.0372 ****
1097 HC3    15.416522   -0.148602   25.554556 H    132 MOH     0.0372 ****
1098 O1     16.189017   -2.029810   25.560213 O    132 MOH    -0.6497 ****
1099 HO1    15.538343   -2.384170   26.169739 H    132 MOH     0.4215 ****
1100 HC1     8.217542   -5.997575   27.229692 H    133 MOH     0.0372 ****
1101 C1      8.861287   -5.213330   26.833005 C    133 MOH     0.1166 ****
1102 HC2     8.895351   -4.411939   27.570518 H    133 MOH     0.0372 ****
1103 HC3     8.462338   -4.773239   25.918009 H    133 MOH     0.0372 ****
1104 O1     10.173027   -5.677917   26.602489 O    133 MOH    -0.6497 ****
1105 HO1    10.615277   -4.890814   26.277219 H    133 MOH     0.4215 ****
1106 HC1    14.709845    1.038176   22.072055 H    134 MOH     0.0372 ****
1107 C1     14.576478    0.015514   21.719209 C    134 MOH     0.1166 ****
1108 HC2    13.577662   -0.062054   21.290702 H    134 MOH     0.0372 ****
1109 HC3    14.649801   -0.701370   22.536625 H    134 MOH     0.0372 ****
1110 O1     15.496774   -0.261687   20.707339 O    134 MOH    -0.6497 ****
1111 HO1    15.612821   -1.209640   20.615416 H    134 MOH     0.4215 ****
1112 HC1    16.896848   -8.236409   21.029780 H    135 MOH     0.0372 ****
1113 C1     16.160149   -7.890623   21.754565 C    135 MOH     0.1166 ****
1114 HC2    15.889372   -8.698546   22.435508 H    135 MOH     0.0372 ****
1115 HC3    15.251400   -7.590969   21.234134 H    135 MOH     0.0372 ****
1116 O1     16.600090   -6.809173   22.548646 O    135 MOH    -0.6497 ****
1117 HO1    17.547522   -6.877759   22.684410 H    135 MOH     0.4215 ****
1118 HC1    17.845435    8.318876   21.381919 H    136 MOH     0.0372 ****
1119 C1     16.997885    7.654247   21.551625 C    136 MOH     0.1166 ****
1120 HC2    16.132436    8.298055   21.707895 H    136 MOH     0.0372 ****
1121 HC3    17.230557    7.052489   22.429851 H    136 MOH     0.0372 ****
1122 O1     16.864517    6.952469   20.336108 O    136 MOH    -0.6497 ****
1123 HO1    17.710335    6.546670   20.131047 H    136 MOH     0.4215 ****
1124 HC1    15.734065  -10.487082   26.791993 H    137 MOH     0.0372 ****
1125 C1     16.769254  -10.182937   26.635723 C    137 MOH     0.1166 ****
1126 HC2    17.358151  -11.085574   26.468138 H    137 MOH     0.0372 ****
1127 HC3    17.142222   -9.626086   27.494150 H    137 MOH     0.0372 ****
1128 O1     16.766944   -9.451356   25.459097 O    137 MOH    -0.6497 ****
1129 HO1    17.404339   -8.742229   25.568699 H    137 MOH     0.4215 ****
1130 HC1     7.211797    3.008790   27.480715 H    138 MOH     0.0372 ****
1131 C1      7.045521    4.079217   27.599509 C    138 MOH     0.1166 ****
1132 HC2     7.398859    4.400100   28.579559 H    138 MOH     0.0372 ****
1133 HC3     5.978577    4.292323   27.527384 H    138 MOH     0.0372 ****
1134 O1      7.732567    4.793652   26.589761 O    138 MOH    -0.6497 ****
1135 HO1     7.641923    4.263745   25.794973 H    138 MOH     0.4215 ****
1136 HC1    13.874997    9.324799   24.631782 H    139 MOH     0.0372 ****
1137 C1     14.746218    8.669561   24.612690 C    139 MOH     0.1166 ****
1138 HC2    14.745641    8.098013   23.684966 H    139 MOH     0.0372 ****
1139 HC3    14.718506    7.960434   25.440712 H    139 MOH     0.0372 ****
1140 O1     15.924590    9.454214   24.686229 O    139 MOH    -0.6497 ****
1141 HO1    15.895145    9.964933   25.498695 H    139 MOH     0.4215 ****
1142 HC1     9.689785    2.559717   27.156860 H    140 MOH     0.0372 ****
1143 C1      9.957098    1.555018   27.485665 C    140 MOH     0.1166 ****
1144 HC2    10.901643    1.265570   27.025338 H    140 MOH     0.0372 ****
1145 HC3     9.194418    0.841400   27.175952 H    140 MOH     0.0372 ****
1146 O1     10.124530    1.562775   28.914728 O    140 MOH    -0.6497 ****
1147 HO1     9.296032    1.750569   29.361619 H    140 MOH     0.4215 ****
1148 HC1    27.623439    3.696280   24.587234 H    141 MOH     0.0372 ****
1149 C1     27.176570    4.110244   23.683552 C    141 MOH     0.1166 ****
1150 HC2    26.148886    4.429086   23.855379 H    141 MOH     0.0372 ****
1151 HC3    27.207169    3.337838   22.914220 H    141 MOH     0.0372 ****
1152 O1     27.987170    5.174547   23.295350 O    141 MOH    -0.6497 ****
1153 HO1    28.169035    5.720783   24.063268 H    141 MOH     0.4215 ****
1154 HC1    20.849388    1.443974   19.181403 H    142 MOH     0.0372 ****
1155 C1     19.925050    1.959184   18.919773 C    142 MOH     0.1166 ****
1156 HC2    19.212023    1.912235   19.743553 H    142 MOH     0.0372 ****
1157 HC3    19.489151    1.512968   18.026698 H    142 MOH     0.0372 ****
1158 O1     20.162919    3.308444   18.640466 O    142 MOH    -0.6497 ****
1159 HO1    20.667523    3.338655   17.824465 H    142 MOH     0.4215 ****
1160 HC1    11.108912   -8.775705   19.720925 H    143 MOH     0.0372 ****
1161 C1     11.622754   -8.466661   20.630972 C    143 MOH     0.1166 ****
1162 HC2    12.705863   -8.492789   20.515006 H    143 MOH     0.0372 ****
1163 HC3    11.319645   -9.105978   21.461115 H    143 MOH     0.0372 ****
1164 O1     11.183390   -7.209256   20.913815 O    143 MOH    -0.6497 ****
1165 HO1    10.851414   -6.847140   20.088621 H    143 MOH     0.4215 ****
1166 HC1     4.485549    0.646257   25.555263 H    144 MOH     0.0372 ****
1167 C1      5.044425    1.278634   26.244692 C    144 MOH     0.1166 ****
1168 HC2     5.089458    2.279250   25.814064 H    144 MOH     0.0372 ****
1169 HC3     6.057674    0.884266   26.325303 H    144 MOH     0.0372 ****
1170 O1      4.379317    1.290881   27.533041 O    144 MOH    -0.6497 ****
1171 HO1     4.846393    0.672793   28.098726 H    144 MOH     0.4215 ****
1172 HC1    12.960474   -5.566874   23.454449 H    145 MOH     0.0372 ****
1173 C1     12.078283   -4.983487   23.715372 C    145 MOH     0.1166 ****
1174 HC2    12.382546   -3.984911   24.026499 H    145 MOH     0.0372 ****
1175 HC3    11.543079   -5.473385   24.528544 H    145 MOH     0.0372 ****
1176 O1     11.257291   -4.928373   22.547938 O    145 MOH    -0.6497 ****
1177 HO1    11.166647   -5.817130   22.195092 H    145 MOH     0.4215 ****
1178 HC1    14.690793   -3.704037   28.520869 H    146 MOH     0.0372 ****
1179 C1     14.379024   -2.660554   28.485514 C    146 MOH     0.1166 ****
1180 HC2    15.185005   -2.003274   28.813612 H    146 MOH     0.0372 ****
1181 HC3    13.536092   -2.537263   29.164336 H    146 MOH     0.0372 ****
1182 O1     13.925804   -2.314359   27.191509 O    146 MOH    -0.6497 ****
1183 HO1    13.714494   -1.378654   27.221207 H    146 MOH     0.4215 ****
1184 HC1    10.416091   -4.533189   29.337578 H    147 MOH     0.0372 ****
1185 C1     11.187431   -4.826311   30.050341 C    147 MOH     0.1166 ****
1186 HC2    12.085211   -5.082691   29.487484 H    147 MOH     0.0372 ****
1187 HC3    10.857187   -5.714659   30.589157 H    147 MOH     0.0372 ****
1188 O1     11.447816   -3.748944   30.958973 O    147 MOH    -0.6497 ****
1189 HO1    10.781554   -3.773847   31.649817 H    147 MOH     0.4215 ****
1190 HC1    10.286765   -3.922449   35.220706 H    148 MOH     0.0372 ****
1191 C1     10.770007   -4.073093   34.255505 C    148 MOH     0.1166 ****
1192 HC2    11.225536   -5.062687   34.235706 H    148 MOH     0.0372 ****
1193 HC3    11.530377   -3.303953   34.116912 H    148 MOH     0.0372 ****
1194 O1      9.738859   -4.023695   33.269091 O    148 MOH    -0.6497 ****
1195 HO1     9.226172   -3.222712   33.399199 H    148 MOH     0.4215 ****
1196 HC1     5.986660   -2.494805   28.887151 H    149 MOH     0.0372 ****
1197 C1      6.574403   -1.579104   28.948669 C    149 MOH     0.1166 ****
1198 HC2     7.040324   -1.368448   27.985589 H    149 MOH     0.0372 ****
1199 HC3     7.363063   -1.727707   29.685474 H    149 MOH     0.0372 ****
1200 O1      5.792670   -0.454380   29.324143 O    149 MOH    -0.6497 ****
1201 HO1     5.392567   -0.618496   30.181156 H    149 MOH     0.4215 ****
1202 HC1    19.721823    0.112677   26.437026 H    150 MOH     0.0372 ****
1203 C1     20.503555    0.785878   26.085594 C    150 MOH     0.1166 ****
1204 HC2    21.063008    0.351094   25.257572 H    150 MOH     0.0372 ****
1205 HC3    21.188870    0.990819   26.907252 H    150 MOH     0.0372 ****
1206 O1     19.929669    1.985312   25.640116 O    150 MOH    -0.6497 ****
1207 HO1    20.124814    2.628711   26.326010 H    150 MOH     0.4215 ****
1208 HC1    19.911079    9.185015   19.028668 H    151 MOH     0.0372 ****
1209 C1     20.323884   10.192572   18.991898 C    151 MOH     0.1166 ****
1210 HC2    20.238436   10.663282   19.971241 H    151 MOH     0.0372 ****
1211 HC3    19.747111   10.780449   18.277720 H    151 MOH     0.0372 ****
1212 O1     21.663337   10.137050   18.560563 O    151 MOH    -0.6497 ****
1213 HO1    21.696823    9.476504   17.864770 H    151 MOH     0.4215 ****
1214 HC1    20.565794   13.300158   21.251812 H    152 MOH     0.0372 ****
1215 C1     21.353877   13.334451   20.499450 C    152 MOH     0.1166 ****
1216 HC2    20.933566   13.725961   19.572433 H    152 MOH     0.0372 ****
1217 HC3    21.751671   12.336692   20.312774 H    152 MOH     0.0372 ****
1218 O1     22.360198   14.234638   20.849468 O    152 MOH    -0.6497 ****
1219 HO1    23.187541   13.769643   20.705925 H    152 MOH     0.4215 ****
1220 HC1    23.769510   12.679620   18.533693 H    153 MOH     0.0372 ****
1221 C1     24.199636   12.109706   19.358180 C    153 MOH     0.1166 ****
1222 HC2    24.975018   11.465898   18.943108 H    153 MOH     0.0372 ****
1223 HC3    23.454277   11.460999   19.818506 H    153 MOH     0.0372 ****
1224 O1     24.768904   13.004178   20.297925 O    153 MOH    -0.6497 ****
1225 HO1    25.183441   12.464882   20.974626 H    153 MOH     0.4215 ****
1226 HC1    27.823664   15.507965   16.068719 H    154 MOH     0.0372 ****
1227 C1     28.747424   15.696167   15.520711 C    154 MOH     0.1166 ****
1228 HC2    29.338054   14.781283   15.558188 H    154 MOH     0.0372 ****
1229 HC3    29.269926   16.519604   16.007908 H    154 MOH     0.0372 ****
1230 O1     28.474338   16.048485   14.166602 O    154 MOH    -0.6497 ****
1231 HO1    29.256070   16.470614   13.803149 H    154 MOH     0.4215 ****
1232 HC1    22.707186    7.626731   19.720925 H    155 MOH     0.0372 ****
1233 C1     23.221028    7.935775   20.630972 C    155 MOH     0.1166 ****
1234 HC2    24.304137    7.909647   20.515006 H    155 MOH     0.0372 ****
1235 HC3    22.917919    7.296459   21.461115 H    155 MOH     0.0372 ****
1236 O1     22.781664    9.193180   20.913815 O    155 MOH    -0.6497 ****
1237 HO1    22.449688    9.555296   20.088621 H    155 MOH     0.4215 ****
1238 HC1     2.888137  -29.811107   16.964058 H    156 MOH     0.0372 ****
1239 C1      2.433762  -29.513085   16.019363 C    156 MOH     0.1166 ****
1240 HC2     1.352962  -29.647807   16.067446 H    156 MOH     0.0372 ****
1241 HC3     2.856383  -30.137705   15.231646 H    156 MOH     0.0372 ****
1242 O1      2.715509  -28.155660   15.759855 O    156 MOH    -0.6497 ****
1243 HO1     2.445887  -27.961334   14.859001 H    156 MOH     0.4215 ****
1244 HC1     3.929099  -26.897438   20.087348 H    157 MOH     0.0372 ****
1245 C1      3.587308  -27.566966   19.298217 C    157 MOH     0.1166 ****
1246 HC2     3.089055  -28.443067   19.713996 H    157 MOH     0.0372 ****
1247 HC3     4.459684  -27.884991   18.727582 H    157 MOH     0.0372 ****
1248 O1      2.806153  -26.837018   18.376150 O    157 MOH    -0.6497 ****
1249 HO1     2.833289  -27.324058   17.549542 H    157 MOH     0.4215 ****
1250 HC1    -0.929303  -29.274668   14.656061 H    158 MOH     0.0372 ****
1251 C1     -1.836898  -29.338355   15.255688 C    158 MOH     0.1166 ****
1252 HC2    -2.447734  -30.185062   14.943146 H    158 MOH     0.0372 ****
1253 HC3    -2.385958  -28.406324   15.123459 H    158 MOH     0.0372 ****
1254 O1     -1.465084  -29.521659   16.580099 O    158 MOH    -0.6497 ****
1255 HO1    -0.937963  -30.324275   16.578684 H    158 MOH     0.4215 ****
1256 HC1     3.737419  -26.826812   13.019816 H    159 MOH     0.0372 ****
1257 C1      2.829824  -26.447141   12.550297 C    159 MOH     0.1166 ****
1258 HC2     2.960306  -26.467145   11.467717 H    159 MOH     0.0372 ****
1259 HC3     2.686642  -25.416314   12.872031 H    159 MOH     0.0372 ****
1260 O1      1.689558  -27.240367   12.924357 O    159 MOH    -0.6497 ****
1261 HO1     0.916486  -26.735364   12.662020 H    159 MOH     0.4215 ****
1262 HC1     0.970757  -30.955018   11.953499 H    160 MOH     0.0372 ****
1263 C1      1.537137  -30.650057   12.833847 C    160 MOH     0.1166 ****
1264 HC2     1.922807  -31.543712   13.325286 H    160 MOH     0.0372 ****
1265 HC3     0.882999  -30.126274   13.530347 H    160 MOH     0.0372 ****
1266 O1      2.631793  -29.835601   12.428675 O    160 MOH    -0.6497 ****
1267 HO1     2.280764  -28.960317   12.251898 H    160 MOH     0.4215 ****
1268 HC1    13.023405  -18.152515   12.503628 H    161 MOH     0.0372 ****
1269 C1     11.987062  -18.013711   12.810512 C    161 MOH     0.1166 ****
1270 HC2    11.423568  -17.649553   11.952085 H    161 MOH     0.0372 ****
1271 HC3    11.917202  -17.263759   13.598936 H    161 MOH     0.0372 ****
1272 O1     11.461673  -19.256419   13.227705 O    161 MOH    -0.6497 ****
1273 HO1    10.698993  -19.104142   13.789855 H    161 MOH     0.4215 ****
1274 HC1     7.521835  -28.693486   16.594948 H    162 MOH     0.0372 ****
1275 C1      6.721050  -29.087446   17.220737 C    162 MOH     0.1166 ****
1276 HC2     6.155247  -29.817802   16.641617 H    162 MOH     0.0372 ****
1277 HC3     6.048437  -28.310549   17.582069 H    162 MOH     0.0372 ****
1278 O1      7.218148  -29.828416   18.265134 O    162 MOH    -0.6497 ****
1279 HO1     7.762590  -29.232374   18.784150 H    162 MOH     0.4215 ****
1280 HC1    14.073028  -19.603838   17.172654 H    163 MOH     0.0372 ****
1281 C1     14.676936  -19.052294   17.893196 C    163 MOH     0.1166 ****
1282 HC2    15.488691  -19.687529   18.246749 H    163 MOH     0.0372 ****
1283 HC3    14.028572  -18.766521   18.721925 H    163 MOH     0.0372 ****
1284 O1     15.181541  -17.928387   17.237708 O    163 MOH    -0.6497 ****
1285 HO1    15.994450  -17.666700   17.676821 H    163 MOH     0.4215 ****
1286 HC1    21.473504  -18.120264    3.591961 H    164 MOH     0.0372 ****
1287 C1     22.011017  -17.777743    2.707371 C    164 MOH     0.1166 ****
1288 HC2    21.683082  -18.351740    1.840458 H    164 MOH     0.0372 ****
1289 HC3    23.070455  -17.962272    2.885562 H    164 MOH     0.0372 ****
1290 O1     21.750632  -16.397048    2.438670 O    164 MOH    -0.6497 ****
1291 HO1    22.009862  -16.192107    1.537816 H    164 MOH     0.4215 ****
1292 HC1    12.134863  -24.925354   21.557423 H    165 MOH     0.0372 ****
1293 C1     11.114685  -25.218068   21.805618 C    165 MOH     0.1166 ****
1294 HC2    10.953605  -25.160505   22.881127 H    165 MOH     0.0372 ****
1295 HC3    10.906262  -26.240322   21.488834 H    165 MOH     0.0372 ****
1296 O1     10.228453  -24.325638   21.204577 O    165 MOH    -0.6497 ****
1297 HO1    10.679941  -23.949233   20.445144 H    165 MOH     0.4215 ****
1298 HC1    24.842343  -19.952482   12.234220 H    166 MOH     0.0372 ****
1299 C1     24.890840  -21.040055   12.183309 C    166 MOH     0.1166 ****
1300 HC2    24.512676  -21.394823   11.225179 H    166 MOH     0.0372 ****
1301 HC3    24.284045  -21.486679   12.971026 H    166 MOH     0.0372 ****
1302 O1     26.227406  -21.474432   12.256848 O    166 MOH    -0.6497 ****
1303 HO1    26.195074  -22.433815   12.278061 H    166 MOH     0.4215 ****
1304 HC1    15.932096  -20.977185    6.660805 H    167 MOH     0.0372 ****
1305 C1     15.977707  -21.431974    5.670855 C    167 MOH     0.1166 ****
1306 HC2    16.895116  -22.010870    5.561961 H    167 MOH     0.0372 ****
1307 HC3    15.967314  -20.654261    4.907887 H    167 MOH     0.0372 ****
1308 O1     14.874390  -22.268475    5.453773 O    167 MOH    -0.6497 ****
1309 HO1    15.133621  -23.156006    5.711160 H    167 MOH     0.4215 ****
1310 HC1     6.733751  -22.138651   17.761674 H    168 MOH     0.0372 ****
1311 C1      7.774137  -22.111299   17.435698 C    168 MOH     0.1166 ****
1312 HC2     8.358415  -22.751024   18.098257 H    168 MOH     0.0372 ****
1313 HC3     8.115351  -21.077614   17.489438 H    168 MOH     0.0372 ****
1314 O1      7.841109  -22.593440   16.112701 O    168 MOH    -0.6497 ****
1315 HO1     7.246439  -23.346250   16.068860 H    168 MOH     0.4215 ****
1316 HC1     9.614152  -26.820851   13.601765 H    169 MOH     0.0372 ****
1317 C1     10.528675  -26.514665   13.094062 C    169 MOH     0.1166 ****
1318 HC2    11.123923  -25.860243   13.731165 H    169 MOH     0.0372 ****
1319 HC3    10.253279  -25.968429   12.191794 H    169 MOH     0.0372 ****
1320 O1     11.230733  -27.654086   12.695961 O    169 MOH    -0.6497 ****
1321 HO1    12.165463  -27.455269   12.785764 H    169 MOH     0.4215 ****
1322 HC1     6.559969  -27.158473    8.746063 H    170 MOH     0.0372 ****
1323 C1      6.602693  -26.916790    9.808137 C    170 MOH     0.1166 ****
1324 HC2     7.639614  -26.978843   10.139063 H    170 MOH     0.0372 ****
1325 HC3     6.005136  -27.618568   10.390086 H    170 MOH     0.0372 ****
1326 O1      6.169103  -25.623051   10.077545 O    170 MOH    -0.6497 ****
1327 HO1     5.399495  -25.431582    9.536608 H    170 MOH     0.4215 ****
1328 HC1     3.956697  -23.220918   16.461305 H    171 MOH     0.0372 ****
1329 C1      3.521952  -24.106408   16.924460 C    171 MOH     0.1166 ****
1330 HC2     3.109724  -24.781243   16.174219 H    171 MOH     0.0372 ****
1331 HC3     2.699805  -23.820226   17.581362 H    171 MOH     0.0372 ****
1332 O1      4.427237  -24.809004   17.719955 O    171 MOH    -0.6497 ****
1333 HO1     3.900694  -25.526704   18.080579 H    171 MOH     0.4215 ****
1334 HC1    17.545790  -17.662617   14.230383 H    172 MOH     0.0372 ****
1335 C1     16.880105  -16.803663   14.315236 C    172 MOH     0.1166 ****
1336 HC2    15.837988  -17.123729   14.308165 H    172 MOH     0.0372 ****
1337 HC3    17.015205  -16.179043   13.432766 H    172 MOH     0.0372 ****
1338 O1     17.105849  -16.006762   15.518731 O    172 MOH    -0.6497 ****
1339 HO1    17.033103  -16.573819   16.288771 H    172 MOH     0.4215 ****
1340 HC1     9.869341  -25.049054    9.132850 H    173 MOH     0.0372 ****
1341 C1      9.328941  -24.179485    8.759498 C    173 MOH     0.1166 ****
1342 HC2     8.885536  -24.508941    7.819753 H    173 MOH     0.0372 ****
1343 HC3    10.051784  -23.376460    8.613127 H    173 MOH     0.0372 ****
1344 O1      8.337631  -23.841047    9.752983 O    173 MOH    -0.6497 ****
1345 HO1     7.701968  -24.555073    9.835714 H    173 MOH     0.4215 ****
1346 HC1    14.486411  -13.408670   16.964058 H    174 MOH     0.0372 ****
1347 C1     14.032036  -13.110649   16.019363 C    174 MOH     0.1166 ****
1348 HC2    12.951237  -13.245371   16.067446 H    174 MOH     0.0372 ****
1349 HC3    14.454657  -13.735269   15.231646 H    174 MOH     0.0372 ****
1350 O1     14.313783  -11.753223   15.759855 O    174 MOH    -0.6497 ****
1351 HO1    14.044161  -11.558897   14.859001 H    174 MOH     0.4215 ****
1352 HC1    15.527373  -10.495002   20.087348 H    175 MOH     0.0372 ****
1353 C1     15.185582  -11.164529   19.298217 C    175 MOH     0.1166 ****
1354 HC2    14.687329  -12.040630   19.713996 H    175 MOH     0.0372 ****
1355 HC3    16.057958  -11.482555   18.727582 H    175 MOH     0.0372 ****
1356 O1     14.404427  -10.434581   18.376150 O    175 MOH    -0.6497 ****
1357 HO1    14.431563  -10.921621   17.549542 H    175 MOH     0.4215 ****
1358 HC1    21.057234  -19.164563   17.046789 H    176 MOH     0.0372 ****
1359 C1     21.539899  -20.130478   16.899711 C    176 MOH     0.1166 ****
1360 HC2    20.766827  -20.884513   16.751926 H    176 MOH     0.0372 ****
1361 HC3    22.104548  -20.372978   17.799151 H    176 MOH     0.0372 ****
1362 O1     22.448071  -20.102717   15.776825 O    176 MOH    -0.6497 ****
1363 HO1    23.159367  -19.498510   16.005928 H    176 MOH     0.4215 ****
1364 HC1    19.551505  -14.363155    8.174720 H    177 MOH     0.0372 ****
1365 C1     18.970691  -13.981851    9.014763 C    177 MOH     0.1166 ****
1366 HC2    19.268026  -12.974702    9.306798 H    177 MOH     0.0372 ****
1367 HC3    19.178537  -14.637089    9.861170 H    177 MOH     0.0372 ****
1368 O1     17.591401  -14.025533    8.729799 O    177 MOH    -0.6497 ****
1369 HO1    17.186101  -14.700368    9.279221 H    177 MOH     0.4215 ****
1370 HC1     8.129207  -24.720005   19.200636 H    178 MOH     0.0372 ****
1371 C1      7.737764  -25.489145   18.535956 C    178 MOH     0.1166 ****
1372 HC2     8.237172  -25.455261   17.567927 H    178 MOH     0.0372 ****
1373 HC3     6.666202  -25.326662   18.411505 H    178 MOH     0.0372 ****
1374 O1      7.878637  -26.755940   19.120733 O    178 MOH    -0.6497 ****
1375 HO1     7.432345  -26.756348   19.969969 H    178 MOH     0.4215 ****
1376 HC1    18.483984  -23.360947   13.951783 H    179 MOH     0.0372 ****
1377 C1     17.420505  -23.160089   13.820261 C    179 MOH     0.1166 ****
1378 HC2    16.838536  -24.081097   13.847131 H    179 MOH     0.0372 ****
1379 HC3    17.255383  -22.689378   12.850818 H    179 MOH     0.0372 ****
1380 O1     16.970172  -22.269699   14.799604 O    179 MOH    -0.6497 ****
1381 HO1    17.080446  -21.375227   14.469385 H    179 MOH     0.4215 ****
1382 HC1    22.196924  -20.433398   11.155176 H    180 MOH     0.0372 ****
1383 C1     21.792779  -20.087612   10.204117 C    180 MOH     0.1166 ****
1384 HC2    20.859781  -20.610986    9.991985 H    180 MOH     0.0372 ****
1385 HC3    22.513889  -20.232540    9.400136 H    180 MOH     0.0372 ****
1386 O1     21.546250  -18.721613   10.358266 O    180 MOH    -0.6497 ****
1387 HO1    22.370706  -18.266008   10.546357 H    180 MOH     0.4215 ****
1388 HC1    17.394524  -19.761422    8.691615 H    181 MOH     0.0372 ****
1389 C1     17.157233  -20.048012    9.716920 C    181 MOH     0.1166 ****
1390 HC2    17.919336  -20.710599   10.126335 H    181 MOH     0.0372 ****
1391 HC3    16.204028  -20.576694    9.697828 H    181 MOH     0.0372 ****
1392 O1     17.055620  -18.921655   10.554842 O    181 MOH    -0.6497 ****
1393 HO1    17.829269  -18.365213   10.435341 H    181 MOH     0.4215 ****
1394 HC1    24.436466  -18.546067    9.488525 H    182 MOH     0.0372 ****
1395 C1     24.856777  -17.662617    9.969357 C    182 MOH     0.1166 ****
1396 HC2    25.110233  -16.920830    9.212046 H    182 MOH     0.0372 ****
1397 HC3    25.743587  -17.945533   10.535750 H    182 MOH     0.0372 ****
1398 O1     23.851610  -17.166187   10.792430 O    182 MOH    -0.6497 ****
1399 HO1    24.207835  -16.969820   11.661464 H    182 MOH     0.4215 ****
1400 HC1    18.787670  -16.238239   22.064419 H    183 MOH     0.0372 ****
1401 C1     18.744946  -15.364179   21.414588 C    183 MOH     0.1166 ****
1402 HC2    19.545731  -14.664033   21.652883 H    183 MOH     0.0372 ****
1403 HC3    17.805598  -14.848153   21.609749 H    183 MOH     0.0372 ****
1404 O1     18.745524  -15.718539   20.023002 O    183 MOH    -0.6497 ****
1405 HO1    18.854643  -14.926129   19.491964 H    183 MOH     0.4215 ****
1406 HC1    13.101348  -20.507700   10.678585 H    184 MOH     0.0372 ****
1407 C1     12.518801  -21.380534   10.974156 C    184 MOH     0.1166 ****
1408 HC2    12.854819  -22.295419   10.486960 H    184 MOH     0.0372 ****
1409 HC3    11.498623  -21.200497   10.636866 H    184 MOH     0.0372 ****
1410 O1     12.511873  -21.527504   12.377056 O    184 MOH    -0.6497 ****
1411 HO1    12.325389  -20.665692   12.758186 H    184 MOH     0.4215 ****
1412 HC1    12.270541  -23.522205   14.949510 H    185 MOH     0.0372 ****
1413 C1     13.302266  -23.805938   14.743742 C    185 MOH     0.1166 ****
1414 HC2    13.573043  -24.631824   15.400645 H    185 MOH     0.0372 ****
1415 HC3    13.950630  -22.955148   14.954460 H    185 MOH     0.0372 ****
1416 O1     13.440252  -24.125188   13.381855 O    185 MOH    -0.6497 ****
1417 HO1    13.143494  -23.332370   12.929306 H    185 MOH     0.4215 ****
1418 HC1    17.764606  -24.249703    9.262958 H    186 MOH     0.0372 ****
1419 C1     17.779040  -23.542209    8.433521 C    186 MOH     0.1166 ****
1420 HC2    16.788307  -23.111099    8.292100 H    186 MOH     0.0372 ****
1421 HC3    18.117944  -24.035373    7.522768 H    186 MOH     0.0372 ****
1422 O1     18.656035  -22.490562    8.740406 O    186 MOH    -0.6497 ****
1423 HO1    18.852334  -22.483621    9.680151 H    186 MOH     0.4215 ****
1424 HC1    11.560977  -19.767545   16.146642 H    187 MOH     0.0372 ****
1425 C1     11.321377  -20.400330   17.000827 C    187 MOH     0.1166 ****
1426 HC2    10.275795  -20.275815   17.281549 H    187 MOH     0.0372 ****
1427 HC3    11.953575  -20.092919   17.834506 H    187 MOH     0.0372 ****
1428 O1     11.623331  -21.750407   16.684750 O    187 MOH    -0.6497 ****
1429 HO1    11.160873  -22.023525   15.889255 H    187 MOH     0.4215 ****
1430 HC1     8.967520  -27.705933    7.046885 H    188 MOH     0.0372 ****
1431 C1      9.755603  -27.671641    6.294523 C    188 MOH     0.1166 ****
1432 HC2     9.335292  -27.280131    5.367506 H    188 MOH     0.0372 ****
1433 HC3    10.153397  -28.669399    6.107847 H    188 MOH     0.0372 ****
1434 O1     10.761924  -26.771453    6.644541 O    188 MOH    -0.6497 ****
1435 HO1    11.589267  -27.236448    6.500999 H    188 MOH     0.4215 ****
1436 HC1    22.518508  -19.611186    6.614136 H    189 MOH     0.0372 ****
1437 C1     23.262135  -20.132111    6.011681 C    189 MOH     0.1166 ****
1438 HC2    24.177813  -19.542601    5.963598 H    189 MOH     0.0372 ****
1439 HC3    22.926117  -20.253361    4.981426 H    189 MOH     0.0372 ****
1440 O1     23.600462  -21.360939    6.595751 O    189 MOH    -0.6497 ****
1441 HO1    22.896672  -21.632424    7.189014 H    189 MOH     0.4215 ****
1442 HC1    22.269093  -24.463626    8.646361 H    190 MOH     0.0372 ****
1443 C1     21.332053  -24.207654    8.153507 C    190 MOH     0.1166 ****
1444 HC2    20.493741  -24.539560    8.766569 H    190 MOH     0.0372 ****
1445 HC3    21.313578  -24.706533    7.184771 H    190 MOH     0.0372 ****
1446 O1     21.301454  -22.824100    7.936425 O    190 MOH    -0.6497 ****
1447 HO1    20.385199  -22.582826    7.784397 H    190 MOH     0.4215 ****
1448 HC1    12.322502  -25.165813   17.888246 H    191 MOH     0.0372 ****
1449 C1     11.312716  -24.766546   17.980170 C    191 MOH     0.1166 ****
1450 HC2    10.700148  -25.507925   18.493530 H    191 MOH     0.0372 ****
1451 HC3    10.911458  -24.574669   16.984564 H    191 MOH     0.0372 ****
1452 O1     11.380844  -23.577727   18.742431 O    191 MOH    -0.6497 ****
1453 HO1    11.715130  -22.884521   18.168260 H    191 MOH     0.4215 ****
1454 HC1     8.066276  -17.929612   16.312105 H    192 MOH     0.0372 ****
1455 C1      8.928837  -17.466658   15.832687 C    192 MOH     0.1166 ****
1456 HC2     9.715766  -17.351940   16.578684 H    192 MOH     0.0372 ****
1457 HC3     8.611872  -16.474615   15.510246 H    192 MOH     0.0372 ****
1458 O1      9.311620  -18.254169   14.673739 O    192 MOH    -0.6497 ****
1459 HO1     8.617645  -18.208037   14.012594 H    192 MOH     0.4215 ****
1460 HC1    14.752569  -22.492194   22.572829 H    193 MOH     0.0372 ****
1461 C1     15.360519  -21.621401   22.324634 C    193 MOH     0.1166 ****
1462 HC2    16.410142  -21.890845   22.210083 H    193 MOH     0.0372 ****
1463 HC3    15.303939  -20.899210   23.139928 H    193 MOH     0.0372 ****
1464 O1     14.965612  -21.059243   21.114774 O    193 MOH    -0.6497 ****
1465 HO1    15.247359  -21.657735   20.418981 H    193 MOH     0.4215 ****
1466 HC1    16.225390  -25.498127    1.863792 H    194 MOH     0.0372 ****
1467 C1     17.149151  -25.309924    1.315785 C    194 MOH     0.1166 ****
1468 HC2    17.739780  -26.224809    1.353261 H    194 MOH     0.0372 ****
1469 HC3    17.671652  -24.486488    1.802981 H    194 MOH     0.0372 ****
1470 O1     16.876064  -24.957606   -0.038325 O    194 MOH    -0.6497 ****
1471 HO1    17.657796  -24.535477   -0.401778 H    194 MOH     0.4215 ****
1472 HC1    20.333237  -16.242321   11.884910 H    195 MOH     0.0372 ****
1473 C1     19.318255  -16.625667   11.780965 C    195 MOH     0.1166 ****
1474 HC2    18.597145  -15.808354   11.802178 H    195 MOH     0.0372 ****
1475 HC3    19.083274  -17.320505   12.587067 H    195 MOH     0.0372 ****
1476 O1     19.190661  -17.337652   10.598682 O    195 MOH    -0.6497 ****
1477 HO1    19.911194  -17.970845   10.566863 H    195 MOH     0.4215 ****
1478 HC1    19.191238  -18.877564    7.664189 H    196 MOH     0.0372 ****
1479 C1     19.784177  -19.216002    6.814954 C    196 MOH     0.1166 ****
1480 HC2    20.151372  -20.211720    7.063149 H    196 MOH     0.0372 ****
1481 HC3    20.631150  -18.546067    6.662926 H    196 MOH     0.0372 ****
1482 O1     18.979928  -19.267033    5.644692 O    196 MOH    -0.6497 ****
1483 HO1    19.386960  -19.917373    5.066986 H    196 MOH     0.4215 ****
1484 HC1    14.947714  -18.556681   13.326700 H    197 MOH     0.0372 ****
1485 C1     15.129002  -19.594856   13.606008 C    197 MOH     0.1166 ****
1486 HC2    14.469668  -20.232132   13.016988 H    197 MOH     0.0372 ****
1487 HC3    14.904413  -19.749583   14.661718 H    197 MOH     0.0372 ****
1488 O1     16.459217  -19.990449   13.364884 O    197 MOH    -0.6497 ****
1489 HO1    16.638773  -19.882263   12.427968 H    197 MOH     0.4215 ****
1490 HC1    18.836168  -24.344825   16.985271 H    198 MOH     0.0372 ****
1491 C1     19.289965  -23.465458   17.442062 C    198 MOH     0.1166 ****
1492 HC2    20.127123  -23.148658   16.819808 H    198 MOH     0.0372 ****
1493 HC3    19.593651  -23.714490   18.458881 H    198 MOH     0.0372 ****
1494 O1     18.339647  -22.467700   17.406707 O    198 MOH    -0.6497 ****
1495 HO1    18.011712  -22.412178   16.505852 H    198 MOH     0.4215 ****
1496 HC1    10.668971  -12.872232   14.656061 H    199 MOH     0.0372 ****
1497 C1      9.761376  -12.935919   15.255688 C    199 MOH     0.1166 ****
1498 HC2     9.150540  -13.782625   14.943146 H    199 MOH     0.0372 ****
1499 HC3     9.212316  -12.003888   15.123459 H    199 MOH     0.0372 ****
1500 O1     10.133190  -13.119222   16.580099 O    199 MOH    -0.6497 ****
1501 HO1    10.660311  -13.921838   16.578684 H    199 MOH     0.4215 ****
1502 HC1    22.855680  -17.392765   15.059819 H    200 MOH     0.0372 ****
1503 C1     22.363201  -16.956348   14.190785 C    200 MOH     0.1166 ****
1504 HC2    21.420965  -16.468899   14.441101 H    200 MOH     0.0372 ****
1505 HC3    22.110899  -17.790807   13.536004 H    200 MOH     0.0372 ****
1506 O1     23.200936  -16.031257   13.490749 O    200 MOH    -0.6497 ****
1507 HO1    22.659959  -15.331520   13.118811 H    200 MOH     0.4215 ****
1508 HC1    25.510914  -18.029632   18.808899 H    201 MOH     0.0372 ****
1509 C1     25.171432  -18.775502   18.089772 C    201 MOH     0.1166 ****
1510 HC2    24.665096  -19.612819   18.571311 H    201 MOH     0.0372 ****
1511 HC3    26.058242  -19.172319   17.594797 H    201 MOH     0.0372 ****
1512 O1     24.330233  -18.154965   17.135178 O    201 MOH    -0.6497 ****
1513 HO1    24.859663  -17.469924   16.719399 H    201 MOH     0.4215 ****
1514 HC1    16.217307  -25.265833    9.827936 H    202 MOH     0.0372 ****
1515 C1     15.586841  -25.579368   10.659494 C    202 MOH     0.1166 ****
1516 HC2    14.610541  -25.892086   10.288970 H    202 MOH     0.0372 ****
1517 HC3    15.416522  -24.752257   11.349630 H    202 MOH     0.0372 ****
1518 O1     16.189017  -26.633465   11.355287 O    202 MOH    -0.6497 ****
1519 HO1    15.538343  -26.987825   11.964813 H    202 MOH     0.4215 ****
1520 HC1    18.879469  -20.533419   12.971733 H    203 MOH     0.0372 ****
1521 C1     19.535916  -20.257852   13.796926 C    203 MOH     0.1166 ****
1522 HC2    18.989166  -20.293777   14.740207 H    203 MOH     0.0372 ****
1523 HC3    19.882327  -19.235190   13.646313 H    203 MOH     0.0372 ****
1524 O1     20.654821  -21.129870   13.861980 O    203 MOH    -0.6497 ****
1525 HO1    21.259884  -20.803271   14.532317 H    203 MOH     0.4215 ****
1526 HC1    22.655917  -15.818560   20.739301 H    204 MOH     0.0372 ****
1527 C1     22.344148  -16.237422   21.696723 C    204 MOH     0.1166 ****
1528 HC2    21.817027  -15.491145   22.289279 H    204 MOH     0.0372 ****
1529 HC3    23.236732  -16.570961   22.224932 H    204 MOH     0.0372 ****
1530 O1     21.529507  -17.351532   21.469742 O    204 MOH    -0.6497 ****
1531 HO1    20.843615  -17.110257   20.843953 H    204 MOH     0.4215 ****
1532 HC1    15.335693  -10.424375   13.019816 H    205 MOH     0.0372 ****
1533 C1     14.428099  -10.044704   12.550297 C    205 MOH     0.1166 ****
1534 HC2    14.558580  -10.064708   11.467717 H    205 MOH     0.0372 ****
1535 HC3    14.284916   -9.013877   12.872031 H    205 MOH     0.0372 ****
1536 O1     13.287832  -10.837931   12.924357 O    205 MOH    -0.6497 ****
1537 HO1    12.514760  -10.332927   12.662020 H    205 MOH     0.4215 ****
1538 HC1    17.493251  -18.894302   19.531562 H    206 MOH     0.0372 ****
1539 C1     18.075220  -18.651803   18.642022 C    206 MOH     0.1166 ****
1540 HC2    18.038847  -19.473607   17.927137 H    206 MOH     0.0372 ****
1541 HC3    19.102326  -18.508508   18.979312 H    206 MOH     0.0372 ****
1542 O1     17.609299  -17.407462   18.110278 O    206 MOH    -0.6497 ****
1543 HO1    18.024991  -16.730178   18.648386 H    206 MOH     0.4215 ****
1544 HC1    14.987551  -23.460559   17.203060 H    207 MOH     0.0372 ****
1545 C1     15.150364  -23.684688   18.257356 C    207 MOH     0.1166 ****
1546 HC2    15.717899  -24.611411   18.349280 H    207 MOH     0.0372 ****
1547 HC3    14.166559  -23.802263   18.711319 H    207 MOH     0.0372 ****
1548 O1     15.843184  -22.608137   18.849204 O    207 MOH    -0.6497 ****
1549 HO1    16.681497  -22.517506   18.390999 H    207 MOH     0.4215 ****
1550 HC1    14.709846  -23.565479    7.867129 H    208 MOH     0.0372 ****
1551 C1     14.576478  -24.588141    7.514283 C    208 MOH     0.1166 ****
1552 HC2    13.577662  -24.665708    7.085776 H    208 MOH     0.0372 ****
1553 HC3    14.649801  -25.305025    8.331698 H    208 MOH     0.0372 ****
1554 O1     15.496774  -24.865342    6.502413 O    208 MOH    -0.6497 ****
1555 HO1    15.612821  -25.813294    6.410489 H    208 MOH     0.4215 ****
1556 HC1    17.845435  -16.284779    7.176993 H    209 MOH     0.0372 ****
1557 C1     16.997885  -16.949408    7.346698 C    209 MOH     0.1166 ****
1558 HC2    16.132437  -16.305600    7.502969 H    209 MOH     0.0372 ****
1559 HC3    17.230557  -17.551165    8.224925 H    209 MOH     0.0372 ****
1560 O1     16.864517  -17.651186    6.131182 O    209 MOH    -0.6497 ****
1561 HO1    17.710335  -18.056985    5.926121 H    209 MOH     0.4215 ****
1562 HC1    19.262830  -20.902476   21.758242 H    210 MOH     0.0372 ****
1563 C1     19.326338  -21.825525   21.181950 C    210 MOH     0.1166 ****
1564 HC2    20.358063  -22.029649   20.896279 H    210 MOH     0.0372 ****
1565 HC3    18.709151  -21.713665   20.290995 H    210 MOH     0.0372 ****
1566 O1     18.808455  -22.878806   21.947039 O    210 MOH    -0.6497 ****
1567 HO1    19.058448  -23.703467   21.522775 H    210 MOH     0.4215 ****
1568 HC1     7.211798  -21.594865   13.275789 H    211 MOH     0.0372 ****
1569 C1      7.045521  -20.524438   13.394583 C    211 MOH     0.1166 ****
1570 HC2     7.398859  -20.203555   14.374633 H    211 MOH     0.0372 ****
1571 HC3     5.978577  -20.311332   13.322458 H    211 MOH     0.0372 ****
1572 O1      7.732568  -19.810003   12.384834 O    211 MOH    -0.6497 ****
1573 HO1     7.641924  -20.339910   11.590046 H    211 MOH     0.4215 ****
1574 HC1    13.874997  -15.278856   10.426855 H    212 MOH     0.0372 ****
1575 C1     14.746219  -15.934094   10.407764 C    212 MOH     0.1166 ****
1576 HC2    14.745641  -16.505642    9.480039 H    212 MOH     0.0372 ****
1577 HC3    14.718506  -16.643221   11.235786 H    212 MOH     0.0372 ****
1578 O1     15.924590  -15.149441   10.481303 O    212 MOH    -0.6497 ****
1579 HO1    15.895146  -14.638722   11.293768 H    212 MOH     0.4215 ****
1580 HC1     9.689785  -22.043938   12.951934 H    213 MOH     0.0372 ****
1581 C1      9.957098  -23.048637   13.280738 C    213 MOH     0.1166 ****
1582 HC2    10.901643  -23.338085   12.820412 H    213 MOH     0.0372 ****
1583 HC3     9.194418  -23.762255   12.971026 H    213 MOH     0.0372 ****
1584 O1     10.124530  -23.040880   14.709801 O    213 MOH    -0.6497 ****
1585 HO1     9.296032  -22.853086   15.156693 H    213 MOH     0.4215 ****
1586 HC1    27.623439  -20.907375   10.382308 H    214 MOH     0.0372 ****
1587 C1     27.176570  -20.493411    9.478625 C    214 MOH     0.1166 ****
1588 HC2    26.148886  -20.174569    9.650452 H    214 MOH     0.0372 ****
1589 HC3    27.207169  -21.265817    8.709293 H    214 MOH     0.0372 ****
1590 O1     27.987170  -19.429108    9.090424 O    214 MOH    -0.6497 ****
1591 HO1    28.169035  -18.882871    9.858342 H    214 MOH     0.4215 ****
1592 HC1    20.849388  -23.159681    4.976476 H    215 MOH     0.0372 ****
1593 C1     19.925051  -22.644471    4.714847 C    215 MOH     0.1166 ****
1594 HC2    19.212023  -22.691420    5.538626 H    215 MOH     0.0372 ****
1595 HC3    19.489151  -23.090687    3.821771 H    215 MOH     0.0372 ****
1596 O1     20.162919  -21.295211    4.435540 O    215 MOH    -0.6497 ****
1597 HO1    20.667523  -21.265000    3.619539 H    215 MOH     0.4215 ****
1598 HC1    12.571340  -15.966346   15.028706 H    216 MOH     0.0372 ****
1599 C1     12.200681  -16.363163   15.973401 C    216 MOH     0.1166 ****
1600 HC2    13.055160  -16.486046   16.638788 H    216 MOH     0.0372 ****
1601 HC3    11.728986  -17.338876   15.857435 H    216 MOH     0.0372 ****
1602 O1     11.345625  -15.427866   16.535551 O    216 MOH    -0.6497 ****
1603 HO1    11.530378  -15.426233   17.477417 H    216 MOH     0.4215 ****
1604 HC1    11.859467  -20.641197   20.766878 H    217 MOH     0.0372 ****
1605 C1     11.793072  -20.901659   21.823295 C    217 MOH     0.1166 ****
1606 HC2    11.901036  -21.979843   21.947039 H    217 MOH     0.0372 ****
1607 HC3    10.809267  -20.586900   22.171899 H    217 MOH     0.0372 ****
1608 O1     12.776877  -20.182734   22.546666 O    217 MOH    -0.6497 ****
1609 HO1    13.599601  -20.291736   22.063712 H    217 MOH     0.4215 ****
1610 HC1    12.569031  -14.552582   11.953499 H    218 MOH     0.0372 ****
1611 C1     13.135411  -14.247620   12.833847 C    218 MOH     0.1166 ****
1612 HC2    13.521081  -15.141276   13.325286 H    218 MOH     0.0372 ****
1613 HC3    12.481273  -13.723838   13.530347 H    218 MOH     0.0372 ****
1614 O1     14.230067  -13.433165   12.428675 O    218 MOH    -0.6497 ****
1615 HO1    13.879038  -12.557881   12.251898 H    218 MOH     0.4215 ****
1616 HC1     4.485550  -23.957398   11.350337 H    219 MOH     0.0372 ****
1617 C1      5.044425  -23.325021   12.039766 C    219 MOH     0.1166 ****
1618 HC2     5.089458  -22.324404   11.609138 H    219 MOH     0.0372 ****
1619 HC3     6.057674  -23.719389   12.120376 H    219 MOH     0.0372 ****
1620 O1      4.379317  -23.312774   13.328114 O    219 MOH    -0.6497 ****
1621 HO1     4.846393  -23.930861   13.893800 H    219 MOH     0.4215 ****
1622 HC1     5.986660  -27.098460   14.682224 H    220 MOH     0.0372 ****
1623 C1      6.574403  -26.182759   14.743742 C    220 MOH     0.1166 ****
1624 HC2     7.040325  -25.972103   13.780663 H    220 MOH     0.0372 ****
1625 HC3     7.363063  -26.331361   15.480548 H    220 MOH     0.0372 ****
1626 O1      5.792671  -25.058035   15.119216 O    220 MOH    -0.6497 ****
1627 HO1     5.392567  -25.222151   15.976229 H    220 MOH     0.4215 ****
1628 HC1    19.803807  -16.425217   17.161340 H    221 MOH     0.0372 ****
1629 C1     20.749507  -16.082288   17.581362 C    221 MOH     0.1166 ****
1630 HC2    20.635769  -15.107799   18.057245 H    221 MOH     0.0372 ****
1631 HC3    21.479277  -15.968795   16.779503 H    221 MOH     0.0372 ****
1632 O1     21.191180  -17.004521   18.553634 O    221 MOH    -0.6497 ****
1633 HO1    22.022564  -17.392765   18.271498 H    221 MOH     0.4215 ****
1634 HC1    19.721823  -24.490978   12.232099 H    222 MOH     0.0372 ****
1635 C1     20.503555  -23.817777   11.880667 C    222 MOH     0.1166 ****
1636 HC2    21.063008  -24.252561   11.052645 H    222 MOH     0.0372 ****
1637 HC3    21.188870  -23.612836   12.702325 H    222 MOH     0.0372 ****
1638 O1     19.929669  -22.618343   11.435190 O    222 MOH    -0.6497 ****
1639 HO1    20.124814  -21.974944   12.121083 H    222 MOH     0.4215 ****
1640 HC1    24.621679   -1.750079   12.503628 H    223 MOH     0.0372 ****
1641 C1     23.585336   -1.611274   12.810512 C    223 MOH     0.1166 ****
1642 HC2    23.021842   -1.247117   11.952085 H    223 MOH     0.0372 ****
1643 HC3    23.515476   -0.861322   13.598936 H    223 MOH     0.0372 ****
1644 O1     23.059947   -2.853982   13.227705 O    223 MOH    -0.6497 ****
1645 HO1    22.297267   -2.701705   13.789855 H    223 MOH     0.4215 ****
1646 HC1    19.120109  -12.291050   16.594948 H    224 MOH     0.0372 ****
1647 C1     18.319324  -12.685009   17.220737 C    224 MOH     0.1166 ****
1648 HC2    17.753521  -13.415365   16.641617 H    224 MOH     0.0372 ****
1649 HC3    17.646711  -11.908113   17.582069 H    224 MOH     0.0372 ****
1650 O1     18.816422  -13.425980   18.265134 O    224 MOH    -0.6497 ****
1651 HO1    19.360864  -12.829937   18.784150 H    224 MOH     0.4215 ****
1652 HC1    30.850712  -17.156553    7.688231 H    225 MOH     0.0372 ****
1653 C1     30.663650  -18.142472    8.113202 C    225 MOH     0.1166 ****
1654 HC2    30.271629  -18.047759    9.125779 H    225 MOH     0.0372 ****
1655 HC3    31.620897  -18.658906    8.181792 H    225 MOH     0.0372 ****
1656 O1     29.822451  -18.946313    7.263967 O    225 MOH    -0.6497 ****
1657 HO1    29.106536  -19.292508    7.801368 H    225 MOH     0.4215 ****
1658 HC1    25.671302   -3.201401   17.172654 H    226 MOH     0.0372 ****
1659 C1     26.275211   -2.649858   17.893196 C    226 MOH     0.1166 ****
1660 HC2    27.086965   -3.285092   18.246749 H    226 MOH     0.0372 ****
1661 HC3    25.626846   -2.364084   18.721925 H    226 MOH     0.0372 ****
1662 O1     26.779815   -1.525950   17.237708 O    226 MOH    -0.6497 ****
1663 HO1    27.592724   -1.264263   17.676821 H    226 MOH     0.4215 ****
1664 HC1    23.733137   -8.522918   21.557423 H    227 MOH     0.0372 ****
1665 C1     22.712959   -8.815632   21.805618 C    227 MOH     0.1166 ****
1666 HC2    22.551879   -8.758069   22.881127 H    227 MOH     0.0372 ****
1667 HC3    22.504536   -9.837886   21.488834 H    227 MOH     0.0372 ****
1668 O1     21.826727   -7.923201   21.204577 O    227 MOH    -0.6497 ****
1669 HO1    22.278215   -7.546796   20.445144 H    227 MOH     0.4215 ****
1670 HC1    27.530370   -4.574749    6.660805 H    228 MOH     0.0372 ****
1671 C1     27.575981   -5.029537    5.670855 C    228 MOH     0.1166 ****
1672 HC2    28.493390   -5.608433    5.561961 H    228 MOH     0.0372 ****
1673 HC3    27.565589   -4.251824    4.907887 H    228 MOH     0.0372 ****
1674 O1     26.472664   -5.866038    5.453773 O    228 MOH    -0.6497 ****
1675 HO1    26.731895   -6.753570    5.711160 H    228 MOH     0.4215 ****
1676 HC1    18.332026   -5.736215   17.761674 H    229 MOH     0.0372 ****
1677 C1     19.372411   -5.708862   17.435698 C    229 MOH     0.1166 ****
1678 HC2    19.956689   -6.348587   18.098257 H    229 MOH     0.0372 ****
1679 HC3    19.713625   -4.675178   17.489438 H    229 MOH     0.0372 ****
1680 O1     19.439383   -6.191004   16.112701 O    229 MOH    -0.6497 ****
1681 HO1    18.844713   -6.943813   16.068860 H    229 MOH     0.4215 ****
1682 HC1    21.212426  -10.418415   13.601765 H    230 MOH     0.0372 ****
1683 C1     22.126949  -10.112228   13.094062 C    230 MOH     0.1166 ****
1684 HC2    22.722197   -9.457806   13.731165 H    230 MOH     0.0372 ****
1685 HC3    21.851553   -9.565992   12.191794 H    230 MOH     0.0372 ****
1686 O1     22.829007  -11.251649   12.695961 O    230 MOH    -0.6497 ****
1687 HO1    23.763737  -11.052832   12.785764 H    230 MOH     0.4215 ****
1688 HC1    18.158243  -10.756036    8.746063 H    231 MOH     0.0372 ****
1689 C1     18.200967  -10.514353    9.808137 C    231 MOH     0.1166 ****
1690 HC2    19.237888  -10.576407   10.139063 H    231 MOH     0.0372 ****
1691 HC3    17.603410  -11.216132   10.390086 H    231 MOH     0.0372 ****
1692 O1     17.767377   -9.220614   10.077545 O    231 MOH    -0.6497 ****
1693 HO1    16.997769   -9.029146    9.536608 H    231 MOH     0.4215 ****
1694 HC1    15.554971   -6.818481   16.461305 H    232 MOH     0.0372 ****
1695 C1     15.120226   -7.703972   16.924460 C    232 MOH     0.1166 ****
1696 HC2    14.707998   -8.378806   16.174219 H    232 MOH     0.0372 ****
1697 HC3    14.298079   -7.417790   17.581362 H    232 MOH     0.0372 ****
1698 O1     16.025511   -8.406567   17.719955 O    232 MOH    -0.6497 ****
1699 HO1    15.498968   -9.124268   18.080579 H    232 MOH     0.4215 ****
1700 HC1    29.144064   -1.260181   14.230383 H    233 MOH     0.0372 ****
1701 C1     28.478379   -0.401226   14.315236 C    233 MOH     0.1166 ****
1702 HC2    27.436262   -0.721293   14.308165 H    233 MOH     0.0372 ****
1703 HC3    28.613479    0.223394   13.432766 H    233 MOH     0.0372 ****
1704 O1     28.704123    0.395674   15.518731 O    233 MOH    -0.6497 ****
1705 HO1    28.631377   -0.171383   16.288771 H    233 MOH     0.4215 ****
1706 HC1    21.467615   -8.646617    9.132850 H    234 MOH     0.0372 ****
1707 C1     20.927215   -7.777048    8.759498 C    234 MOH     0.1166 ****
1708 HC2    20.483810   -8.106505    7.819753 H    234 MOH     0.0372 ****
1709 HC3    21.650058   -6.974024    8.613127 H    234 MOH     0.0372 ****
1710 O1     19.935905   -7.438610    9.752983 O    234 MOH    -0.6497 ****
1711 HO1    19.300242   -8.152637    9.835714 H    234 MOH     0.4215 ****
1712 HC1    19.911079  -15.418640    4.823741 H    235 MOH     0.0372 ****
1713 C1     20.323884  -14.411083    4.786972 C    235 MOH     0.1166 ****
1714 HC2    20.238436  -13.940373    5.766315 H    235 MOH     0.0372 ****
1715 HC3    19.747111  -13.823205    4.072794 H    235 MOH     0.0372 ****
1716 O1     21.663337  -14.466605    4.355637 O    235 MOH    -0.6497 ****
1717 HO1    21.696823  -15.127150    3.659844 H    235 MOH     0.4215 ****
1718 HC1    26.084685    2.993766   16.964058 H    236 MOH     0.0372 ****
1719 C1     25.630310    3.291788   16.019363 C    236 MOH     0.1166 ****
1720 HC2    24.549511    3.157066   16.067446 H    236 MOH     0.0372 ****
1721 HC3    26.052931    2.667168   15.231646 H    236 MOH     0.0372 ****
1722 O1     25.912057    4.649213   15.759855 O    236 MOH    -0.6497 ****
1723 HO1    25.642435    4.843539   14.859001 H    236 MOH     0.4215 ****
1724 HC1    27.125648    5.907435   20.087348 H    237 MOH     0.0372 ****
1725 C1     26.783856    5.237907   19.298217 C    237 MOH     0.1166 ****
1726 HC2    26.285603    4.361807   19.713996 H    237 MOH     0.0372 ****
1727 HC3    27.656232    4.919882   18.727582 H    237 MOH     0.0372 ****
1728 O1     26.002701    5.967855   18.376150 O    237 MOH    -0.6497 ****
1729 HO1    26.029837    5.480815   17.549542 H    237 MOH     0.4215 ****
1730 HC1    29.892310  -10.798494   15.756319 H    238 MOH     0.0372 ****
1731 C1     29.752014  -10.952812   14.687174 C    238 MOH     0.1166 ****
1732 HC2    29.555715   -9.998327   14.197856 H    238 MOH     0.0372 ****
1733 HC3    28.917743  -11.631729   14.511104 H    238 MOH     0.0372 ****
1734 O1     30.927499  -11.507213   14.135631 O    238 MOH    -0.6497 ****
1735 HO1    31.574131  -11.608050   14.837788 H    238 MOH     0.4215 ****
1736 HC1    27.348505  -11.004659    8.387560 H    239 MOH     0.0372 ****
1737 C1     27.187424  -12.017523    8.755962 C    239 MOH     0.1166 ****
1738 HC2    26.436291  -11.972616    9.543679 H    239 MOH     0.0372 ****
1739 HC3    28.112339  -12.418015    9.171034 H    239 MOH     0.0372 ****
1740 O1     26.735936  -12.864230    7.699545 O    239 MOH    -0.6497 ****
1741 HO1    27.140659  -13.722368    7.849451 H    239 MOH     0.4215 ****
1742 HC1    31.149779    2.039282    8.174720 H    240 MOH     0.0372 ****
1743 C1     30.568965    2.420586    9.014763 C    240 MOH     0.1166 ****
1744 HC2    30.866300    3.427734    9.306798 H    240 MOH     0.0372 ****
1745 HC3    30.776811    1.765347    9.861170 H    240 MOH     0.0372 ****
1746 O1     29.189675    2.376903    8.729799 O    240 MOH    -0.6497 ****
1747 HO1    28.784375    1.702069    9.279221 H    240 MOH     0.4215 ****
1748 HC1    19.727481   -8.317569   19.200636 H    241 MOH     0.0372 ****
1749 C1     19.336038   -9.086709   18.535956 C    241 MOH     0.1166 ****
1750 HC2    19.835446   -9.052824   17.567927 H    241 MOH     0.0372 ****
1751 HC3    18.264476   -8.924226   18.411505 H    241 MOH     0.0372 ****
1752 O1     19.476911  -10.353503   19.120733 O    241 MOH    -0.6497 ****
1753 HO1    19.030619  -10.353911   19.969969 H    241 MOH     0.4215 ****
1754 HC1    30.082258   -6.958510   13.951783 H    242 MOH     0.0372 ****
1755 C1     29.018779   -6.757652   13.820261 C    242 MOH     0.1166 ****
1756 HC2    28.436810   -7.678660   13.847131 H    242 MOH     0.0372 ****
1757 HC3    28.853657   -6.286942   12.850818 H    242 MOH     0.0372 ****
1758 O1     28.568446   -5.867263   14.799604 O    242 MOH    -0.6497 ****
1759 HO1    28.678720   -4.972791   14.469385 H    242 MOH     0.4215 ****
1760 HC1    29.562643  -15.286775   16.358774 H    243 MOH     0.0372 ****
1761 C1     29.376736  -14.700939   15.458627 C    243 MOH     0.1166 ****
1762 HC2    29.394634  -15.324743   14.564844 H    243 MOH     0.0372 ****
1763 HC3    30.124405  -13.915469   15.349733 H    243 MOH     0.0372 ****
1764 O1     28.134278  -14.112653   15.588028 O    243 MOH    -0.6497 ****
1765 HO1    27.835788  -14.002018   14.682224 H    243 MOH     0.4215 ****
1766 HC1    28.992798   -3.358985    8.691615 H    244 MOH     0.0372 ****
1767 C1     28.755507   -3.645576    9.716920 C    244 MOH     0.1166 ****
1768 HC2    29.517610   -4.308162   10.126335 H    244 MOH     0.0372 ****
1769 HC3    27.802302   -4.174257    9.697828 H    244 MOH     0.0372 ****
1770 O1     28.653894   -2.519218   10.554842 O    244 MOH    -0.6497 ****
1771 HO1    29.427543   -1.962776   10.435341 H    244 MOH     0.4215 ****
1772 HC1    26.683975  -18.341289   15.043556 H    245 MOH     0.0372 ****
1773 C1     26.276943  -17.340673   14.898599 C    245 MOH     0.1166 ****
1774 HC2    25.231361  -17.386396   14.593129 H    245 MOH     0.0372 ****
1775 HC3    26.833508  -16.883026   14.081890 H    245 MOH     0.0372 ****
1776 O1     26.431673  -16.516828   16.055426 O    245 MOH    -0.6497 ****
1777 HO1    26.714574  -15.636644   15.795210 H    245 MOH     0.4215 ****
1778 HC1    26.089881  -13.935882   17.265992 H    246 MOH     0.0372 ****
1779 C1     26.178216  -12.949962   17.722076 C    246 MOH     0.1166 ****
1780 HC2    25.577194  -12.918119   18.630001 H    246 MOH     0.0372 ****
1781 HC3    25.826032  -12.214707   16.998706 H    246 MOH     0.0372 ****
1782 O1     27.518246  -12.746246   18.029668 O    246 MOH    -0.6497 ****
1783 HO1    28.003220  -13.212874   17.345895 H    246 MOH     0.4215 ****
1784 HC1    30.385944    0.164198   22.064419 H    247 MOH     0.0372 ****
1785 C1     30.343221    1.038257   21.414588 C    247 MOH     0.1166 ****
1786 HC2    31.144005    1.738403   21.652883 H    247 MOH     0.0372 ****
1787 HC3    29.403872    1.554283   21.609749 H    247 MOH     0.0372 ****
1788 O1     30.343798    0.683898   20.023002 O    247 MOH    -0.6497 ****
1789 HO1    30.452917    1.476308   19.491964 H    247 MOH     0.4215 ****
1790 HC1    24.699622   -4.105263   10.678585 H    248 MOH     0.0372 ****
1791 C1     24.117075   -4.978098   10.974156 C    248 MOH     0.1166 ****
1792 HC2    24.453093   -5.892982   10.486960 H    248 MOH     0.0372 ****
1793 HC3    23.096897   -4.798060   10.636866 H    248 MOH     0.0372 ****
1794 O1     24.110147   -5.125067   12.377056 O    248 MOH    -0.6497 ****
1795 HO1    23.923663   -4.263255   12.758186 H    248 MOH     0.4215 ****
1796 HC1    23.868815   -7.119768   14.949510 H    249 MOH     0.0372 ****
1797 C1     24.900540   -7.403501   14.743742 C    249 MOH     0.1166 ****
1798 HC2    25.171317   -8.229387   15.400645 H    249 MOH     0.0372 ****
1799 HC3    25.548904   -6.552712   14.954460 H    249 MOH     0.0372 ****
1800 O1     25.038526   -7.722751   13.381855 O    249 MOH    -0.6497 ****
1801 HO1    24.741768   -6.929933   12.929306 H    249 MOH     0.4215 ****
1802 HC1    29.362880   -7.847267    9.262958 H    250 MOH     0.0372 ****
1803 C1     29.377314   -7.139773    8.433521 C    250 MOH     0.1166 ****
1804 HC2    28.386581   -6.708662    8.292100 H    250 MOH     0.0372 ****
1805 HC3    29.716218   -7.632937    7.522768 H    250 MOH     0.0372 ****
1806 O1     30.254309   -6.088125    8.740406 O    250 MOH    -0.6497 ****
1807 HO1    30.450608   -6.081185    9.680151 H    250 MOH     0.4215 ****
1808 HC1    23.159251   -3.365109   16.146642 H    251 MOH     0.0372 ****
1809 C1     22.919651   -3.997894   17.000827 C    251 MOH     0.1166 ****
1810 HC2    21.874069   -3.873378   17.281549 H    251 MOH     0.0372 ****
1811 HC3    23.551849   -3.690483   17.834506 H    251 MOH     0.0372 ****
1812 O1     23.221605   -5.347971   16.684750 O    251 MOH    -0.6497 ****
1813 HO1    22.759147   -5.621089   15.889255 H    251 MOH     0.4215 ****
1814 HC1    20.565794  -11.303497    7.046885 H    252 MOH     0.0372 ****
1815 C1     21.353877  -11.269204    6.294523 C    252 MOH     0.1166 ****
1816 HC2    20.933566  -10.877694    5.367506 H    252 MOH     0.0372 ****
1817 HC3    21.751671  -12.266963    6.107847 H    252 MOH     0.0372 ****
1818 O1     22.360199  -10.369017    6.644541 O    252 MOH    -0.6497 ****
1819 HO1    23.187541  -10.834011    6.500999 H    252 MOH     0.4215 ****
1820 HC1    23.769511  -11.924034    4.328767 H    253 MOH     0.0372 ****
1821 C1     24.199636  -12.493949    5.153253 C    253 MOH     0.1166 ****
1822 HC2    24.975018  -13.137757    4.738181 H    253 MOH     0.0372 ****
1823 HC3    23.454277  -13.142656    5.613580 H    253 MOH     0.0372 ****
1824 O1     24.768904  -11.599477    6.092998 O    253 MOH    -0.6497 ****
1825 HO1    25.183441  -12.138773    6.769699 H    253 MOH     0.4215 ****
1826 HC1    23.920776   -8.763376   17.888246 H    254 MOH     0.0372 ****
1827 C1     22.910991   -8.364109   17.980170 C    254 MOH     0.1166 ****
1828 HC2    22.298422   -9.105488   18.493530 H    254 MOH     0.0372 ****
1829 HC3    22.509732   -8.172233   16.984564 H    254 MOH     0.0372 ****
1830 O1     22.979118   -7.175290   18.742431 O    254 MOH    -0.6497 ****
1831 HO1    23.313404   -6.482085   18.168260 H    254 MOH     0.4215 ****
1832 HC1    30.537788  -12.771150    6.938698 H    255 MOH     0.0372 ****
1833 C1     30.843206  -13.751354    6.571709 C    255 MOH     0.1166 ****
1834 HC2    31.792370  -13.671745    6.042086 H    255 MOH     0.0372 ****
1835 HC3    30.076485  -14.143680    5.904908 H    255 MOH     0.0372 ****
1836 O1     30.996781  -14.671954    7.645805 O    255 MOH    -0.6497 ****
1837 HO1    31.846063  -15.105922    7.537617 H    255 MOH     0.4215 ****
1838 HC1    19.664550   -1.527175   16.312105 H    256 MOH     0.0372 ****
1839 C1     20.527111   -1.064222   15.832687 C    256 MOH     0.1166 ****
1840 HC2    21.314040   -0.949504   16.578684 H    256 MOH     0.0372 ****
1841 HC3    20.210146   -0.072178   15.510246 H    256 MOH     0.0372 ****
1842 O1     20.909895   -1.851732   14.673739 O    256 MOH    -0.6497 ****
1843 HO1    20.215920   -1.805600   14.012594 H    256 MOH     0.4215 ****
1844 HC1    26.350843   -6.089758   22.572829 H    257 MOH     0.0372 ****
1845 C1     26.958793   -5.218964   22.324634 C    257 MOH     0.1166 ****
1846 HC2    28.008416   -5.488408   22.210083 H    257 MOH     0.0372 ****
1847 HC3    26.902213   -4.496773   23.139928 H    257 MOH     0.0372 ****
1848 O1     26.563886   -4.656806   21.114774 O    257 MOH    -0.6497 ****
1849 HO1    26.845633   -5.255298   20.418981 H    257 MOH     0.4215 ****
1850 HC1    27.823664   -9.095690    1.863792 H    258 MOH     0.0372 ****
1851 C1     28.747425   -8.907488    1.315785 C    258 MOH     0.1166 ****
1852 HC2    29.338054   -9.822372    1.353261 H    258 MOH     0.0372 ****
1853 HC3    29.269927   -8.084051    1.802981 H    258 MOH     0.0372 ****
1854 O1     28.474338   -8.555170   -0.038325 O    258 MOH    -0.6497 ****
1855 HO1    29.256070   -8.133041   -0.401778 H    258 MOH     0.4215 ****
1856 HC1    25.410340  -13.833820   12.774450 H    259 MOH     0.0372 ****
1857 C1     26.267128  -14.091833   12.150782 C    259 MOH     0.1166 ****
1858 HC2    26.453035  -13.298606   11.427412 H    259 MOH     0.0372 ****
1859 HC3    26.021177  -14.995694   11.593582 H    259 MOH     0.0372 ****
1860 O1     27.430489  -14.282485   12.951934 O    259 MOH    -0.6497 ****
1861 HO1    28.126773  -14.630312   12.390491 H    259 MOH     0.4215 ****
1862 HC1    31.465012  -14.173891   11.957742 H    260 MOH     0.0372 ****
1863 C1     30.966759  -14.949562   11.377914 C    260 MOH     0.1166 ****
1864 HC2    31.693643  -15.695024   11.055474 H    260 MOH     0.0372 ****
1865 HC3    30.504301  -14.475586   10.511708 H    260 MOH     0.0372 ****
1866 O1     29.991614  -15.580306   12.174824 O    260 MOH    -0.6497 ****
1867 HO1    30.463309  -15.949362   12.924357 H    260 MOH     0.4215 ****
1868 HC1    26.545988   -2.154244   13.326700 H    261 MOH     0.0372 ****
1869 C1     26.727276   -3.192420   13.606008 C    261 MOH     0.1166 ****
1870 HC2    26.067942   -3.829695   13.016988 H    261 MOH     0.0372 ****
1871 HC3    26.502687   -3.347146   14.661718 H    261 MOH     0.0372 ****
1872 O1     28.057491   -3.588012   13.364884 O    261 MOH    -0.6497 ****
1873 HO1    28.237047   -3.479827   12.427968 H    261 MOH     0.4215 ****
1874 HC1    30.434442   -7.942389   16.985271 H    262 MOH     0.0372 ****
1875 C1     30.888239   -7.063022   17.442062 C    262 MOH     0.1166 ****
1876 HC2    31.725397   -6.746221   16.819808 H    262 MOH     0.0372 ****
1877 HC3    31.191925   -7.312053   18.458881 H    262 MOH     0.0372 ****
1878 O1     29.937921   -6.065263   17.406707 O    262 MOH    -0.6497 ****
1879 HO1    29.609986   -6.009741   16.505852 H    262 MOH     0.4215 ****
1880 HC1    22.267245    3.530205   14.656061 H    263 MOH     0.0372 ****
1881 C1     21.359650    3.466518   15.255688 C    263 MOH     0.1166 ****
1882 HC2    20.748814    2.619811   14.943146 H    263 MOH     0.0372 ****
1883 HC3    20.810590    4.398549   15.123459 H    263 MOH     0.0372 ****
1884 O1     21.731464    3.283215   16.580099 O    263 MOH    -0.6497 ****
1885 HO1    22.258585    2.480598   16.578684 H    263 MOH     0.4215 ****
1886 HC1    27.707039  -10.397186    4.359879 H    264 MOH     0.0372 ****
1887 C1     27.987054  -11.305538    4.893745 C    264 MOH     0.1166 ****
1888 HC2    28.795345  -11.801152    4.356344 H    264 MOH     0.0372 ****
1889 HC3    27.156247  -12.011400    4.917079 H    264 MOH     0.0372 ****
1890 O1     28.424686  -11.044259    6.213206 O    264 MOH    -0.6497 ****
1891 HO1    28.077121  -11.748896    6.764749 H    264 MOH     0.4215 ****
1892 HC1    27.296543   -9.527617   21.282359 H    265 MOH     0.0372 ****
1893 C1     27.641799  -10.370650   20.684854 C    265 MOH     0.1166 ****
1894 HC2    28.381962  -10.902597   21.283773 H    265 MOH     0.0372 ****
1895 HC3    28.083472   -9.984855   19.766322 H    265 MOH     0.0372 ****
1896 O1     26.589289  -11.288392   20.351099 O    265 MOH    -0.6497 ****
1897 HO1    26.868149  -11.801560   19.589545 H    265 MOH     0.4215 ****
1898 HC1    27.815581   -8.863397    9.827936 H    266 MOH     0.0372 ****
1899 C1     27.185115   -9.176932   10.659494 C    266 MOH     0.1166 ****
1900 HC2    26.208815   -9.489650   10.288970 H    266 MOH     0.0372 ****
1901 HC3    27.014796   -8.349821   11.349630 H    266 MOH     0.0372 ****
1902 O1     27.787291  -10.231029   11.355287 O    266 MOH    -0.6497 ****
1903 HO1    27.136617  -10.585388   11.964813 H    266 MOH     0.4215 ****
1904 HC1    26.933967    5.978061   13.019816 H    267 MOH     0.0372 ****
1905 C1     26.026373    6.357732   12.550297 C    267 MOH     0.1166 ****
1906 HC2    26.156854    6.337728   11.467717 H    267 MOH     0.0372 ****
1907 HC3    25.883190    7.388559   12.872031 H    267 MOH     0.0372 ****
1908 O1     24.886106    5.564506   12.924357 O    267 MOH    -0.6497 ****
1909 HO1    24.113034    6.069509   12.662020 H    267 MOH     0.4215 ****
1910 HC1    19.815816  -14.198794   13.024766 H    268 MOH     0.0372 ****
1911 C1     20.459561  -13.414549   12.628079 C    268 MOH     0.1166 ****
1912 HC2    20.493625  -12.613157   13.365591 H    268 MOH     0.0372 ****
1913 HC3    20.060612  -12.974457   11.713083 H    268 MOH     0.0372 ****
1914 O1     21.771301  -13.879135   12.397562 O    268 MOH    -0.6497 ****
1915 HO1    22.213551  -13.092033   12.072293 H    268 MOH     0.4215 ****
1916 HC1    29.091525   -2.491866   19.531562 H    269 MOH     0.0372 ****
1917 C1     29.673494   -2.249366   18.642022 C    269 MOH     0.1166 ****
1918 HC2    29.637121   -3.071170   17.927137 H    269 MOH     0.0372 ****
1919 HC3    30.700600   -2.106071   18.979312 H    269 MOH     0.0372 ****
1920 O1     29.207573   -1.005026   18.110278 O    269 MOH    -0.6497 ****
1921 HO1    29.623265   -0.327742   18.648386 H    269 MOH     0.4215 ****
1922 HC1    26.585825   -7.058123   17.203060 H    270 MOH     0.0372 ****
1923 C1     26.748638   -7.282251   18.257356 C    270 MOH     0.1166 ****
1924 HC2    27.316173   -8.208975   18.349280 H    270 MOH     0.0372 ****
1925 HC3    25.764833   -7.399827   18.711319 H    270 MOH     0.0372 ****
1926 O1     27.441458   -6.205700   18.849204 O    270 MOH    -0.6497 ****
1927 HO1    28.279771   -6.115069   18.390999 H    270 MOH     0.4215 ****
1928 HC1    24.521220  -13.124284   21.962596 H    271 MOH     0.0372 ****
1929 C1     24.128045  -12.689500   22.881127 C    271 MOH     0.1166 ****
1930 HC2    23.943870  -11.624788   22.739706 H    271 MOH     0.0372 ****
1931 HC3    24.827216  -12.833611   23.704907 H    271 MOH     0.0372 ****
1932 O1     22.963529  -13.350454   23.209932 O    271 MOH    -0.6497 ****
1933 HO1    22.539177  -12.900972   23.944616 H    271 MOH     0.4215 ****
1934 HC1    26.308120   -7.163043    7.867129 H    272 MOH     0.0372 ****
1935 C1     26.174752   -8.185705    7.514283 C    272 MOH     0.1166 ****
1936 HC2    25.175936   -8.263272    7.085776 H    272 MOH     0.0372 ****
1937 HC3    26.248075   -8.902589    8.331698 H    272 MOH     0.0372 ****
1938 O1     27.095048   -8.462905    6.502413 O    272 MOH    -0.6497 ****
1939 HO1    27.211095   -9.410858    6.410489 H    272 MOH     0.4215 ****
1940 HC1    28.495122  -16.437627    6.824854 H    273 MOH     0.0372 ****
1941 C1     27.758424  -16.091841    7.549638 C    273 MOH     0.1166 ****
1942 HC2    27.487646  -16.899765    8.230582 H    273 MOH     0.0372 ****
1943 HC3    26.849674  -15.792187    7.029207 H    273 MOH     0.0372 ****
1944 O1     28.198364  -15.010391    8.343719 O    273 MOH    -0.6497 ****
1945 HO1    29.145796  -15.078977    8.479483 H    273 MOH     0.4215 ****
1946 HC1    29.443709    0.117657    7.176993 H    274 MOH     0.0372 ****
1947 C1     28.596159   -0.546971    7.346698 C    274 MOH     0.1166 ****
1948 HC2    27.730711    0.096837    7.502969 H    274 MOH     0.0372 ****
1949 HC3    28.828831   -1.148729    8.224925 H    274 MOH     0.0372 ****
1950 O1     28.462791   -1.248750    6.131182 O    274 MOH    -0.6497 ****
1951 HO1    29.308609   -1.654549    5.926121 H    274 MOH     0.4215 ****
1952 HC1    27.332339  -18.688300   12.587067 H    275 MOH     0.0372 ****
1953 C1     28.367528  -18.384155   12.430796 C    275 MOH     0.1166 ****
1954 HC2    28.956425  -19.286792   12.263212 H    275 MOH     0.0372 ****
1955 HC3    28.740496  -17.827305   13.289224 H    275 MOH     0.0372 ****
1956 O1     28.365219  -17.652574   11.254170 O    275 MOH    -0.6497 ****
1957 HO1    29.002613  -16.943447   11.363772 H    275 MOH     0.4215 ****
1958 HC1    18.810072   -5.192428   13.275789 H    276 MOH     0.0372 ****
1959 C1     18.643795   -4.122001   13.394583 C    276 MOH     0.1166 ****
1960 HC2    18.997133   -3.801118   14.374633 H    276 MOH     0.0372 ****
1961 HC3    17.576851   -3.908896   13.322458 H    276 MOH     0.0372 ****
1962 O1     19.330842   -3.407567   12.384834 O    276 MOH    -0.6497 ****
1963 HO1    19.240198   -3.937473   11.590046 H    276 MOH     0.4215 ****
1964 HC1    25.473271    1.123581   10.426855 H    277 MOH     0.0372 ****
1965 C1     26.344493    0.468343   10.407764 C    277 MOH     0.1166 ****
1966 HC2    26.343915   -0.103205    9.480039 H    277 MOH     0.0372 ****
1967 HC3    26.316780   -0.240785   11.235786 H    277 MOH     0.0372 ****
1968 O1     27.522865    1.252996   10.481303 O    277 MOH    -0.6497 ****
1969 HO1    27.493420    1.763714   11.293768 H    277 MOH     0.4215 ****
1970 HC1    21.288059   -5.641501   12.951934 H    278 MOH     0.0372 ****
1971 C1     21.555372   -6.646200   13.280738 C    278 MOH     0.1166 ****
1972 HC2    22.499917   -6.935648   12.820412 H    278 MOH     0.0372 ****
1973 HC3    20.792692   -7.359818   12.971026 H    278 MOH     0.0372 ****
1974 O1     21.722804   -6.638444   14.709801 O    278 MOH    -0.6497 ****
1975 HO1    20.894306   -6.450649   15.156693 H    278 MOH     0.4215 ****
1976 HC1    24.169614    0.436091   15.028706 H    279 MOH     0.0372 ****
1977 C1     23.798955    0.039274   15.973401 C    279 MOH     0.1166 ****
1978 HC2    24.653434   -0.083609   16.638788 H    279 MOH     0.0372 ****
1979 HC3    23.327260   -0.936440   15.857435 H    279 MOH     0.0372 ****
1980 O1     22.943900    0.974570   16.535551 O    279 MOH    -0.6497 ****
1981 HO1    23.128652    0.976203   17.477417 H    279 MOH     0.4215 ****
1982 HC1    22.707186  -16.976923    5.515999 H    280 MOH     0.0372 ****
1983 C1     23.221028  -16.667880    6.426045 C    280 MOH     0.1166 ****
1984 HC2    24.304137  -16.694007    6.310080 H    280 MOH     0.0372 ****
1985 HC3    22.917919  -17.307196    7.256189 H    280 MOH     0.0372 ****
1986 O1     22.781664  -15.410475    6.708888 O    280 MOH    -0.6497 ****
1987 HO1    22.449688  -15.048359    5.883694 H    280 MOH     0.4215 ****
1988 HC1    23.457741   -4.238760   20.766878 H    281 MOH     0.0372 ****
1989 C1     23.391346   -4.499223   21.823295 C    281 MOH     0.1166 ****
1990 HC2    23.499310   -5.577406   21.947039 H    281 MOH     0.0372 ****
1991 HC3    22.407541   -4.184463   22.171899 H    281 MOH     0.0372 ****
1992 O1     24.375151   -3.780297   22.546666 O    281 MOH    -0.6497 ****
1993 HO1    25.197875   -3.889300   22.063712 H    281 MOH     0.4215 ****
1994 HC1    24.167305    1.849855   11.953499 H    282 MOH     0.0372 ****
1995 C1     24.733685    2.154816   12.833847 C    282 MOH     0.1166 ****
1996 HC2    25.119355    1.261161   13.325286 H    282 MOH     0.0372 ****
1997 HC3    24.079548    2.678599   13.530347 H    282 MOH     0.0372 ****
1998 O1     25.828342    2.969272   12.428675 O    282 MOH    -0.6497 ****
1999 HO1    25.477313    3.844556   12.251898 H    282 MOH     0.4215 ****
2000 HC1    16.083824   -7.554961   11.350337 H    283 MOH     0.0372 ****
2001 C1     16.642699   -6.922585   12.039766 C    283 MOH     0.1166 ****
2002 HC2    16.687732   -5.921968   11.609138 H    283 MOH     0.0372 ****
2003 HC3    17.655948   -7.316952   12.120376 H    283 MOH     0.0372 ****
2004 O1     15.977591   -6.910337   13.328114 O    283 MOH    -0.6497 ****
2005 HO1    16.444668   -7.528425   13.893800 H    283 MOH     0.4215 ****
2006 HC1    24.558748  -13.768092    9.249523 H    284 MOH     0.0372 ****
2007 C1     23.676557  -13.184705    9.510445 C    284 MOH     0.1166 ****
2008 HC2    23.980821  -12.186130    9.821572 H    284 MOH     0.0372 ****
2009 HC3    23.141353  -13.674603   10.323618 H    284 MOH     0.0372 ****
2010 O1     22.855565  -13.129592    8.343012 O    284 MOH    -0.6497 ****
2011 HO1    22.764921  -14.018348    7.990166 H    284 MOH     0.4215 ****
2012 HC1    26.289067  -11.905255   14.315943 H    285 MOH     0.0372 ****
2013 C1     25.977298  -10.861772   14.280587 C    285 MOH     0.1166 ****
2014 HC2    26.783279  -10.204493   14.608685 H    285 MOH     0.0372 ****
2015 HC3    25.134366  -10.738481   14.959410 H    285 MOH     0.0372 ****
2016 O1     25.524078  -10.515578   12.986582 O    285 MOH    -0.6497 ****
2017 HO1    25.312768   -9.579873   13.016281 H    285 MOH     0.4215 ****
2018 HC1    22.014366  -12.734407   15.132651 H    286 MOH     0.0372 ****
2019 C1     22.785706  -13.027529   15.845415 C    286 MOH     0.1166 ****
2020 HC2    23.683485  -13.283909   15.282558 H    286 MOH     0.0372 ****
2021 HC3    22.455461  -13.915878   16.384230 H    286 MOH     0.0372 ****
2022 O1     23.046091  -11.950162   16.754047 O    286 MOH    -0.6497 ****
2023 HO1    22.379828  -11.975065   17.444890 H    286 MOH     0.4215 ****
2024 HC1    21.885039  -12.123668   21.015780 H    287 MOH     0.0372 ****
2025 C1     22.368281  -12.274311   20.050579 C    287 MOH     0.1166 ****
2026 HC2    22.823811  -13.263905   20.030780 H    287 MOH     0.0372 ****
2027 HC3    23.128652  -11.505172   19.911986 H    287 MOH     0.0372 ****
2028 O1     21.337134  -12.224913   19.064165 O    287 MOH    -0.6497 ****
2029 HO1    20.824447  -11.423930   19.194272 H    287 MOH     0.4215 ****
2030 HC1    17.584934  -10.696023   14.682224 H    288 MOH     0.0372 ****
2031 C1     18.172677   -9.780323   14.743742 C    288 MOH     0.1166 ****
2032 HC2    18.638599   -9.569666   13.780663 H    288 MOH     0.0372 ****
2033 HC3    18.961337   -9.928925   15.480548 H    288 MOH     0.0372 ****
2034 O1     17.390945   -8.655599   15.119216 O    288 MOH    -0.6497 ****
2035 HO1    16.990841   -8.819714   15.976229 H    288 MOH     0.4215 ****
2036 HC1    30.718383    4.111387   16.594948 H    289 MOH     0.0372 ****
2037 C1     29.917598    3.717427   17.220737 C    289 MOH     0.1166 ****
2038 HC2    29.351795    2.987071   16.641617 H    289 MOH     0.0372 ****
2039 HC3    29.244985    4.494324   17.582069 H    289 MOH     0.0372 ****
2040 O1     30.414697    2.976457   18.265134 O    289 MOH    -0.6497 ****
2041 HO1    30.959138    3.572499   18.784150 H    289 MOH     0.4215 ****
2042 HC1    29.930300   10.666222   17.761674 H    290 MOH     0.0372 ****
2043 C1     30.970685   10.693574   17.435698 C    290 MOH     0.1166 ****
2044 HC2    31.554963   10.053849   18.098257 H    290 MOH     0.0372 ****
2045 HC3    31.311899   11.727259   17.489438 H    290 MOH     0.0372 ****
2046 O1     31.037657   10.211433   16.112701 O    290 MOH    -0.6497 ****
2047 HO1    30.442987    9.458623   16.068860 H    290 MOH     0.4215 ****
2048 HC1    29.756517    5.646401    8.746063 H    291 MOH     0.0372 ****
2049 C1     29.799241    5.888084    9.808137 C    291 MOH     0.1166 ****
2050 HC2    30.836162    5.826030   10.139063 H    291 MOH     0.0372 ****
2051 HC3    29.201684    5.186305   10.390086 H    291 MOH     0.0372 ****
2052 O1     29.365651    7.181822   10.077545 O    291 MOH    -0.6497 ****
2053 HO1    28.596043    7.373291    9.536608 H    291 MOH     0.4215 ****
2054 HC1    27.153245    9.583955   16.461305 H    292 MOH     0.0372 ****
2055 C1     26.718500    8.698465   16.924460 C    292 MOH     0.1166 ****
2056 HC2    26.306272    8.023630   16.174219 H    292 MOH     0.0372 ****
2057 HC3    25.896353    8.984647   17.581362 H    292 MOH     0.0372 ****
2058 O1     27.623785    7.995869   17.719955 O    292 MOH    -0.6497 ****
2059 HO1    27.097242    7.278169   18.080579 H    292 MOH     0.4215 ****
2060 HC1    31.325755    8.084868   19.200636 H    293 MOH     0.0372 ****
2061 C1     30.934312    7.315728   18.535956 C    293 MOH     0.1166 ****
2062 HC2    31.433720    7.349612   17.567927 H    293 MOH     0.0372 ****
2063 HC3    29.862750    7.478211   18.411505 H    293 MOH     0.0372 ****
2064 O1     31.075185    6.048933   19.120733 O    293 MOH    -0.6497 ****
2065 HO1    30.628893    6.048525   19.969969 H    293 MOH     0.4215 ****
2066 HC1    30.408346   11.210008   13.275789 H    294 MOH     0.0372 ****
2067 C1     30.242069   12.280435   13.394583 C    294 MOH     0.1166 ****
2068 HC2    30.595407   12.601318   14.374633 H    294 MOH     0.0372 ****
2069 HC3    29.175126   12.493541   13.322458 H    294 MOH     0.0372 ****
2070 O1     30.929116   12.994870   12.384834 O    294 MOH    -0.6497 ****
2071 HO1    30.838472   12.464963   11.590046 H    294 MOH     0.4215 ****
2072 HC1    27.682098    8.847475   11.350337 H    295 MOH     0.0372 ****
2073 C1     28.240973    9.479852   12.039766 C    295 MOH     0.1166 ****
2074 HC2    28.286006   10.480469   11.609138 H    295 MOH     0.0372 ****
2075 HC3    29.254223    9.085484   12.120376 H    295 MOH     0.0372 ****
2076 O1     27.575865    9.492099   13.328114 O    295 MOH    -0.6497 ****
2077 HO1    28.042942    8.874012   13.893800 H    295 MOH     0.4215 ****
2078 HC1    29.183208    5.706413   14.682224 H    296 MOH     0.0372 ****
2079 C1     29.770951    6.622114   14.743742 C    296 MOH     0.1166 ****
2080 HC2    30.236873    6.832770   13.780663 H    296 MOH     0.0372 ****
2081 HC3    30.559611    6.473512   15.480548 H    296 MOH     0.0372 ****
2082 O1     28.989219    7.746838   15.119216 O    296 MOH    -0.6497 ****
2083 HO1    28.589115    7.582722   15.976229 H    296 MOH     0.4215 ****
2084 HC1    26.084685  -21.609888    2.759131 H    297 MOH     0.0372 ****
2085 C1     25.630310  -21.311867    1.814436 C    297 MOH     0.1166 ****
2086 HC2    24.549511  -21.446589    1.862520 H    297 MOH     0.0372 ****
2087 HC3    26.052931  -21.936487    1.026719 H    297 MOH     0.0372 ****
2088 O1     25.912057  -19.954442    1.554928 O    297 MOH    -0.6497 ****
2089 HO1    25.642435  -19.760115    0.654074 H    297 MOH     0.4215 ****
2090 HC1    27.125648  -18.696220    5.882422 H    298 MOH     0.0372 ****
2091 C1     26.783856  -19.365748    5.093291 C    298 MOH     0.1166 ****
2092 HC2    26.285603  -20.241848    5.509069 H    298 MOH     0.0372 ****
2093 HC3    27.656233  -19.683773    4.522655 H    298 MOH     0.0372 ****
2094 O1     26.002701  -18.635800    4.171223 O    298 MOH    -0.6497 ****
2095 HO1    26.029837  -19.122840    3.344615 H    298 MOH     0.4215 ****
2096 HC1    22.267245  -21.073450    0.451134 H    299 MOH     0.0372 ****
2097 C1     21.359651  -21.137137    1.050761 C    299 MOH     0.1166 ****
2098 HC2    20.748814  -21.983844    0.738220 H    299 MOH     0.0372 ****
2099 HC3    20.810590  -20.205106    0.918532 H    299 MOH     0.0372 ****
2100 O1     21.731464  -21.320440    2.375172 O    299 MOH    -0.6497 ****
2101 HO1    22.258585  -22.123056    2.373758 H    299 MOH     0.4215 ****
2102 HC1    26.933967  -18.625593   -1.185111 H    300 MOH     0.0372 ****
2103 C1     26.026373  -18.245923   -1.654629 C    300 MOH     0.1166 ****
2104 HC2    26.156854  -18.265927   -2.737210 H    300 MOH     0.0372 ****
2105 HC3    25.883190  -17.215096   -1.332896 H    300 MOH     0.0372 ****
2106 O1     24.886106  -19.039149   -1.280570 O    300 MOH    -0.6497 ****
2107 HO1    24.113034  -18.534146   -1.542907 H    300 MOH     0.4215 ****
2108 HC1    24.167305  -22.753800   -2.251428 H    301 MOH     0.0372 ****
2109 C1     24.733686  -22.448839   -1.371080 C    301 MOH     0.1166 ****
2110 HC2    25.119356  -23.342494   -0.879640 H    301 MOH     0.0372 ****
2111 HC3    24.079548  -21.925056   -0.674579 H    301 MOH     0.0372 ****
2112 O1     25.828342  -21.634383   -1.776252 O    301 MOH    -0.6497 ****
2113 HO1    25.477313  -20.759099   -1.953029 H    301 MOH     0.4215 ****
2114 HC1    30.718383  -20.492268    2.390021 H    302 MOH     0.0372 ****
2115 C1     29.917598  -20.886227    3.015811 C    302 MOH     0.1166 ****
2116 HC2    29.351795  -21.616584    2.436690 H    302 MOH     0.0372 ****
2117 HC3    29.244985  -20.109331    3.377142 H    302 MOH     0.0372 ****
2118 O1     30.414697  -21.627198    4.060208 O    302 MOH    -0.6497 ****
2119 HO1    30.959138  -21.031156    4.579224 H    302 MOH     0.4215 ****
2120 HC1    29.930300  -13.937433    3.556747 H    303 MOH     0.0372 ****
2121 C1     30.970685  -13.910081    3.230771 C    303 MOH     0.1166 ****
2122 HC2    31.554963  -14.549806    3.893330 H    303 MOH     0.0372 ****
2123 HC3    31.311899  -12.876396    3.284511 H    303 MOH     0.0372 ****
2124 O1     31.037658  -14.392222    1.907774 O    303 MOH    -0.6497 ****
2125 HO1    30.442987  -15.145032    1.863934 H    303 MOH     0.4215 ****
2126 HC1    29.756517  -18.957254   -5.458864 H    304 MOH     0.0372 ****
2127 C1     29.799241  -18.715571   -4.396790 C    304 MOH     0.1166 ****
2128 HC2    30.836162  -18.777625   -4.065864 H    304 MOH     0.0372 ****
2129 HC3    29.201684  -19.417350   -3.814841 H    304 MOH     0.0372 ****
2130 O1     29.365651  -17.421833   -4.127382 O    304 MOH    -0.6497 ****
2131 HO1    28.596043  -17.230364   -4.668319 H    304 MOH     0.4215 ****
2132 HC1    27.153245  -15.019700    2.256378 H    305 MOH     0.0372 ****
2133 C1     26.718500  -15.905190    2.719533 C    305 MOH     0.1166 ****
2134 HC2    26.306272  -16.580025    1.969293 H    305 MOH     0.0372 ****
2135 HC3    25.896353  -15.619008    3.376435 H    305 MOH     0.0372 ****
2136 O1     27.623785  -16.607785    3.515028 O    305 MOH    -0.6497 ****
2137 HO1    27.097242  -17.325486    3.875653 H    305 MOH     0.4215 ****
2138 HC1    31.325755  -16.518787    4.995710 H    306 MOH     0.0372 ****
2139 C1     30.934312  -17.287927    4.331029 C    306 MOH     0.1166 ****
2140 HC2    31.433720  -17.254042    3.363000 H    306 MOH     0.0372 ****
2141 HC3    29.862750  -17.125444    4.206579 H    306 MOH     0.0372 ****
2142 O1     31.075185  -18.554721    4.915807 O    306 MOH    -0.6497 ****
2143 HO1    30.628894  -18.555130    5.765042 H    306 MOH     0.4215 ****
2144 HC1    30.408346  -13.393647   -0.929138 H    307 MOH     0.0372 ****
2145 C1     30.242069  -12.323220   -0.810344 C    307 MOH     0.1166 ****
2146 HC2    30.595407  -12.002336    0.169706 H    307 MOH     0.0372 ****
2147 HC3    29.175126  -12.110114   -0.882469 H    307 MOH     0.0372 ****
2148 O1     30.929116  -11.608785   -1.820092 O    307 MOH    -0.6497 ****
2149 HO1    30.838472  -12.138691   -2.614881 H    307 MOH     0.4215 ****
2150 HC1    27.682098  -15.756179   -2.854590 H    308 MOH     0.0372 ****
2151 C1     28.240973  -15.123803   -2.165161 C    308 MOH     0.1166 ****
2152 HC2    28.286006  -14.123186   -2.595789 H    308 MOH     0.0372 ****
2153 HC3    29.254223  -15.518171   -2.084550 H    308 MOH     0.0372 ****
2154 O1     27.575865  -15.111555   -0.876812 O    308 MOH    -0.6497 ****
2155 HO1    28.042942  -15.729643   -0.311127 H    308 MOH     0.4215 ****
2156 HC1    29.183209  -18.897242    0.477297 H    309 MOH     0.0372 ****
2157 C1     29.770951  -17.981541    0.538816 C    309 MOH     0.1166 ****
2158 HC2    30.236873  -17.770885   -0.424264 H    309 MOH     0.0372 ****
2159 HC3    30.559612  -18.130143    1.275621 H    309 MOH     0.0372 ****
2160 O1     28.989219  -16.856817    0.914289 O    309 MOH    -0.6497 ****
2161 HO1    28.589115  -17.020933    1.771303 H    309 MOH     0.4215 ****
2162 HC1   -24.919592   -9.919045   17.796888 H    310 MOH     0.0372 ****
2163 C1    -24.382079   -9.576525   16.912297 C    310 MOH     0.1166 ****
2164 HC2   -24.710014  -10.150522   16.045384 H    310 MOH     0.0372 ****
2165 HC3   -23.322642   -9.761053   17.090488 H    310 MOH     0.0372 ****
2166 O1    -24.642464   -8.195829   16.643596 O    310 MOH    -0.6497 ****
2167 HO1   -24.383234   -7.990889   15.742742 H    310 MOH     0.4215 ****
2168 HC1   -30.167706  -17.296908   16.068719 H    311 MOH     0.0372 ****
2169 C1    -29.243946  -17.108706   15.520711 C    311 MOH     0.1166 ****
2170 HC2   -28.653317  -18.023590   15.558188 H    311 MOH     0.0372 ****
2171 HC3   -28.721444  -16.285269   16.007907 H    311 MOH     0.0372 ****
2172 O1    -29.517033  -16.756388   14.166601 O    311 MOH    -0.6497 ****
2173 HO1   -28.735300  -16.334259   13.803148 H    311 MOH     0.4215 ****
2174 HC1   -21.771417    6.451140   26.708554 H    312 MOH     0.0372 ****
2175 C1    -22.807761    6.589944   27.015439 C    312 MOH     0.1166 ****
2176 HC2   -23.371255    6.954102   26.157011 H    312 MOH     0.0372 ****
2177 HC3   -22.877620    7.339896   27.803863 H    312 MOH     0.0372 ****
2178 O1    -23.333150    5.347236   27.432632 O    312 MOH    -0.6497 ****
2179 HO1   -24.095829    5.499513   27.994781 H    312 MOH     0.4215 ****
2180 HC1    -8.905166    1.898355   29.525668 H    313 MOH     0.0372 ****
2181 C1     -8.471576    2.091456   30.506425 C    313 MOH     0.1166 ****
2182 HC2    -8.185788    3.142287   30.557337 H    313 MOH     0.0372 ****
2183 HC3    -7.583612    1.472144   30.632997 H    313 MOH     0.0372 ****
2184 O1     -9.425936    1.776697   31.514052 O    313 MOH    -0.6497 ****
2185 HO1    -9.225018    0.885083   31.806794 H    313 MOH     0.4215 ****
2186 HC1   -15.542385   -8.955334   21.893157 H    314 MOH     0.0372 ****
2187 C1    -15.729446   -9.941254   22.318128 C    314 MOH     0.1166 ****
2188 HC2   -16.121467   -9.846540   23.330705 H    314 MOH     0.0372 ****
2189 HC3   -14.772200  -10.457688   22.386718 H    314 MOH     0.0372 ****
2190 O1    -16.570646  -10.745095   21.468893 O    314 MOH    -0.6497 ****
2191 HO1   -17.286560  -11.091289   22.006294 H    314 MOH     0.4215 ****
2192 HC1   -14.017603   -1.407640   18.916238 H    315 MOH     0.0372 ****
2193 C1    -14.809727   -1.939996   19.442325 C    315 MOH     0.1166 ****
2194 HC2   -14.782592   -1.682391   20.500864 H    315 MOH     0.0372 ****
2195 HC3   -14.644028   -3.007565   19.300197 H    315 MOH     0.0372 ****
2196 O1    -16.038329   -1.524399   18.886539 O    315 MOH    -0.6497 ****
2197 HO1   -16.732881   -1.883249   19.444446 H    315 MOH     0.4215 ****
2198 HC1   -13.321318    6.483391   17.796888 H    316 MOH     0.0372 ****
2199 C1    -12.783805    6.825912   16.912297 C    316 MOH     0.1166 ****
2200 HC2   -13.111740    6.251914   16.045384 H    316 MOH     0.0372 ****
2201 HC3   -11.724368    6.641383   17.090488 H    316 MOH     0.0372 ****
2202 O1    -13.044190    8.206607   16.643596 O    316 MOH    -0.6497 ****
2203 HO1   -12.784960    8.411548   15.742742 H    316 MOH     0.4215 ****
2204 HC1    -9.952480    4.651173   26.439147 H    317 MOH     0.0372 ****
2205 C1     -9.903982    3.563600   26.388235 C    317 MOH     0.1166 ****
2206 HC2   -10.282147    3.208832   25.430105 H    317 MOH     0.0372 ****
2207 HC3   -10.510777    3.116976   27.175952 H    317 MOH     0.0372 ****
2208 O1     -8.567416    3.129223   26.461774 O    317 MOH    -0.6497 ****
2209 HO1    -8.599748    2.169840   26.482987 H    317 MOH     0.4215 ****
2210 HC1   -18.862726    3.626470   20.865731 H    318 MOH     0.0372 ****
2211 C1    -18.817116    3.171681   19.875781 C    318 MOH     0.1166 ****
2212 HC2   -17.899706    2.592785   19.766887 H    318 MOH     0.0372 ****
2213 HC3   -18.827508    3.949394   19.112813 H    318 MOH     0.0372 ****
2214 O1    -19.920432    2.335180   19.658700 O    318 MOH    -0.6497 ****
2215 HO1   -19.661202    1.447649   19.916087 H    318 MOH     0.4215 ****
2216 HC1   -10.755574   -0.930398   19.361008 H    319 MOH     0.0372 ****
2217 C1    -10.556965    0.030211   19.835476 C    319 MOH     0.1166 ****
2218 HC2    -9.492331    0.247399   19.752038 H    319 MOH     0.0372 ****
2219 HC3   -10.786173   -0.004899   20.900379 H    319 MOH     0.0372 ****
2220 O1    -11.350245    1.025928   19.184231 O    319 MOH    -0.6497 ****
2221 HO1   -11.302902    1.802008   19.747795 H    319 MOH     0.4215 ****
2222 HC1   -11.914316   -6.397659   24.372981 H    320 MOH     0.0372 ****
2223 C1    -11.866973   -5.674243   25.187568 C    320 MOH     0.1166 ****
2224 HC2   -12.660252   -4.946744   25.016448 H    320 MOH     0.0372 ****
2225 HC3   -10.906262   -5.160666   25.140899 H    320 MOH     0.0372 ****
2226 O1    -12.052303   -6.316009   26.481573 O    320 MOH    -0.6497 ****
2227 HO1   -12.243983   -5.640358   27.137061 H    320 MOH     0.4215 ****
2228 HC1   -28.234853   -2.554818   22.950989 H    321 MOH     0.0372 ****
2229 C1    -28.192129   -2.313135   24.013063 C    321 MOH     0.1166 ****
2230 HC2   -27.155208   -2.375188   24.343989 H    321 MOH     0.0372 ****
2231 HC3   -28.789687   -3.014913   24.595012 H    321 MOH     0.0372 ****
2232 O1    -28.625719   -1.019396   24.282471 O    321 MOH    -0.6497 ****
2233 HO1   -29.395327   -0.827927   23.741534 H    321 MOH     0.4215 ****
2234 HC1    -5.156431    2.316809   28.691989 H    322 MOH     0.0372 ****
2235 C1     -5.073870    3.256597   29.237875 C    322 MOH     0.1166 ****
2236 HC2    -5.900635    3.912244   28.964932 H    322 MOH     0.0372 ****
2237 HC3    -4.116623    3.718734   28.993216 H    322 MOH     0.0372 ****
2238 O1     -5.114862    2.898563   30.579257 O    322 MOH    -0.6497 ****
2239 HO1    -4.890850    3.641575   31.143528 H    322 MOH     0.4215 ****
2240 HC1   -17.249032    6.941038   28.435309 H    323 MOH     0.0372 ****
2241 C1    -17.914717    7.799992   28.520162 C    323 MOH     0.1166 ****
2242 HC2   -18.956834    7.479925   28.513091 H    323 MOH     0.0372 ****
2243 HC3   -17.779617    8.424612   27.637693 H    323 MOH     0.0372 ****
2244 O1    -17.688973    8.596893   29.723658 O    323 MOH    -0.6497 ****
2245 HO1   -17.761719    8.029836   30.493697 H    323 MOH     0.4215 ****
2246 HC1   -24.925482   -0.445399   23.337776 H    324 MOH     0.0372 ****
2247 C1    -25.465881    0.424170   22.964424 C    324 MOH     0.1166 ****
2248 HC2   -25.909286    0.094714   22.024679 H    324 MOH     0.0372 ****
2249 HC3   -24.743039    1.227195   22.818053 H    324 MOH     0.0372 ****
2250 O1    -26.457192    0.762608   23.957909 O    324 MOH    -0.6497 ****
2251 HO1   -27.092854    0.048582   24.040640 H    324 MOH     0.4215 ****
2252 HC1   -26.482018   -7.217421   19.028668 H    325 MOH     0.0372 ****
2253 C1    -26.069212   -6.209865   18.991898 C    325 MOH     0.1166 ****
2254 HC2   -26.154660   -5.739154   19.971241 H    325 MOH     0.0372 ****
2255 HC3   -26.645985   -5.621987   18.277720 H    325 MOH     0.0372 ****
2256 O1    -24.729760   -6.265386   18.560563 O    325 MOH    -0.6497 ****
2257 HO1   -24.696273   -6.925932   17.864770 H    325 MOH     0.4215 ****
2258 HC1   -10.368749   -9.060662   24.977557 H    326 MOH     0.0372 ****
2259 C1    -11.048868   -9.629352   25.611832 C    326 MOH     0.1166 ****
2260 HC2   -10.694375   -9.592202   26.642086 H    326 MOH     0.0372 ****
2261 HC3   -11.103716  -10.665895   25.280199 H    326 MOH     0.0372 ****
2262 O1    -12.281511   -9.006365   25.529807 O    326 MOH    -0.6497 ****
2263 HO1   -12.179320   -8.113526   25.865683 H    326 MOH     0.4215 ****
2264 HC1   -16.500786   -2.597275   29.961246 H    327 MOH     0.0372 ****
2265 C1    -16.641083   -2.751593   28.892100 C    327 MOH     0.1166 ****
2266 HC2   -16.837382   -1.797109   28.402782 H    327 MOH     0.0372 ****
2267 HC3   -17.475354   -3.430510   28.716031 H    327 MOH     0.0372 ****
2268 O1    -15.465597   -3.305994   28.340557 O    327 MOH    -0.6497 ****
2269 HO1   -14.818965   -3.406832   29.042714 H    327 MOH     0.4215 ****
2270 HC1   -13.737588    5.439092   31.251715 H    328 MOH     0.0372 ****
2271 C1    -13.254923    4.473177   31.104637 C    328 MOH     0.1166 ****
2272 HC2   -14.027995    3.719142   30.956852 H    328 MOH     0.0372 ****
2273 HC3   -12.690275    4.230677   32.004077 H    328 MOH     0.0372 ****
2274 O1    -12.346751    4.500938   29.981752 O    328 MOH    -0.6497 ****
2275 HO1   -11.635456    5.105145   30.210854 H    328 MOH     0.4215 ****
2276 HC1   -19.044592   -2.803441   22.592486 H    329 MOH     0.0372 ****
2277 C1    -19.205672   -3.816305   22.960888 C    329 MOH     0.1166 ****
2278 HC2   -19.956805   -3.771398   23.748605 H    329 MOH     0.0372 ****
2279 HC3   -18.280757   -4.216796   23.375960 H    329 MOH     0.0372 ****
2280 O1    -19.657160   -4.663012   21.904471 O    329 MOH    -0.6497 ****
2281 HO1   -19.252438   -5.521150   22.054378 H    329 MOH     0.4215 ****
2282 HC1   -15.243317   10.240500   22.379647 H    330 MOH     0.0372 ****
2283 C1    -15.824132   10.621804   23.219689 C    330 MOH     0.1166 ****
2284 HC2   -15.526796   11.628953   23.511725 H    330 MOH     0.0372 ****
2285 HC3   -15.616286    9.966566   24.066096 H    330 MOH     0.0372 ****
2286 O1    -17.203422   10.578122   22.934725 O    330 MOH    -0.6497 ****
2287 HO1   -17.608722    9.903287   23.484147 H    330 MOH     0.4215 ****
2288 HC1   -10.445537   -2.548286   29.025036 H    331 MOH     0.0372 ****
2289 C1    -10.462280   -3.555434   28.607136 C    331 MOH     0.1166 ****
2290 HC2    -9.960563   -4.213939   29.314950 H    331 MOH     0.0372 ****
2291 HC3    -9.910910   -3.584012   27.666684 H    331 MOH     0.0372 ****
2292 O1    -11.805197   -3.991035   28.457937 O    331 MOH    -0.6497 ****
2293 HO1   -12.297099   -3.730164   29.240704 H    331 MOH     0.4215 ****
2294 HC1   -16.310838    1.242708   28.156709 H    332 MOH     0.0372 ****
2295 C1    -17.374317    1.443566   28.025187 C    332 MOH     0.1166 ****
2296 HC2   -17.956286    0.522558   28.052057 H    332 MOH     0.0372 ****
2297 HC3   -17.539440    1.914276   27.055744 H    332 MOH     0.0372 ****
2298 O1    -17.824651    2.333956   29.004530 O    332 MOH    -0.6497 ****
2299 HO1   -17.714377    3.228428   28.674311 H    332 MOH     0.4215 ****
2300 HC1   -12.597899    4.170256   25.360102 H    333 MOH     0.0372 ****
2301 C1    -13.002044    4.516043   24.409043 C    333 MOH     0.1166 ****
2302 HC2   -13.935042    3.992668   24.196911 H    333 MOH     0.0372 ****
2303 HC3   -12.280933    4.371115   23.605063 H    333 MOH     0.0372 ****
2304 O1    -13.248572    5.882042   24.563192 O    333 MOH    -0.6497 ****
2305 HO1   -12.424116    6.337647   24.751283 H    333 MOH     0.4215 ****
2306 HC1   -17.400298    4.842233   22.896542 H    334 MOH     0.0372 ****
2307 C1    -17.637589    4.555643   23.921846 C    334 MOH     0.1166 ****
2308 HC2   -16.875487    3.893056   24.331261 H    334 MOH     0.0372 ****
2309 HC3   -18.590794    4.026961   23.902755 H    334 MOH     0.0372 ****
2310 O1    -17.739203    5.682000   24.759768 O    334 MOH    -0.6497 ****
2311 HO1   -16.965553    6.238442   24.640267 H    334 MOH     0.4215 ****
2312 HC1   -10.358357    6.057588   23.693451 H    335 MOH     0.0372 ****
2313 C1     -9.938046    6.941038   24.174284 C    335 MOH     0.1166 ****
2314 HC2    -9.684589    7.682825   23.416972 H    335 MOH     0.0372 ****
2315 HC3    -9.051236    6.658122   24.740676 H    335 MOH     0.0372 ****
2316 O1    -10.943213    7.437468   24.997356 O    335 MOH    -0.6497 ****
2317 HO1   -10.586988    7.633835   25.866390 H    335 MOH     0.4215 ****
2318 HC1   -21.693475    4.095955   24.883512 H    336 MOH     0.0372 ****
2319 C1    -22.276021    3.223120   25.179082 C    336 MOH     0.1166 ****
2320 HC2   -21.940003    2.308236   24.691886 H    336 MOH     0.0372 ****
2321 HC3   -23.296199    3.403158   24.841792 H    336 MOH     0.0372 ****
2322 O1    -22.282949    3.076151   26.581982 O    336 MOH    -0.6497 ****
2323 HO1   -22.469434    3.937963   26.963113 H    336 MOH     0.4215 ****
2324 HC1   -22.524282    1.081450   29.154437 H    337 MOH     0.0372 ****
2325 C1    -21.492557    0.797717   28.948669 C    337 MOH     0.1166 ****
2326 HC2   -21.221780   -0.028169   29.605571 H    337 MOH     0.0372 ****
2327 HC3   -20.844193    1.648507   29.159386 H    337 MOH     0.0372 ****
2328 O1    -21.354570    0.478467   27.586781 O    337 MOH    -0.6497 ****
2329 HO1   -21.651328    1.271285   27.134233 H    337 MOH     0.4215 ****
2330 HC1   -17.030217    0.353951   23.467884 H    338 MOH     0.0372 ****
2331 C1    -17.015783    1.061446   22.638448 C    338 MOH     0.1166 ****
2332 HC2   -18.006516    1.492556   22.497026 H    338 MOH     0.0372 ****
2333 HC3   -16.676878    0.568282   21.727694 H    338 MOH     0.0372 ****
2334 O1    -16.138788    2.113093   22.945332 O    338 MOH    -0.6497 ****
2335 HO1   -15.942489    2.120034   23.885077 H    338 MOH     0.4215 ****
2336 HC1   -25.827303   -3.102279   21.251811 H    339 MOH     0.0372 ****
2337 C1    -25.039219   -3.067986   20.499450 C    339 MOH     0.1166 ****
2338 HC2   -25.459530   -2.676476   19.572433 H    339 MOH     0.0372 ****
2339 HC3   -24.641425   -4.065745   20.312773 H    339 MOH     0.0372 ****
2340 O1    -24.032898   -2.167798   20.849467 O    339 MOH    -0.6497 ****
2341 HO1   -23.205555   -2.632793   20.705925 H    339 MOH     0.4215 ****
2342 HC1   -22.623586   -3.722816   18.533693 H    340 MOH     0.0372 ****
2343 C1    -22.193460   -4.292731   19.358179 C    340 MOH     0.1166 ****
2344 HC2   -21.418079   -4.936538   18.943108 H    340 MOH     0.0372 ****
2345 HC3   -22.938819   -4.941437   19.818506 H    340 MOH     0.0372 ****
2346 O1    -21.624193   -3.398259   20.297924 O    340 MOH    -0.6497 ****
2347 HO1   -21.209655   -3.937555   20.974625 H    340 MOH     0.4215 ****
2348 HC1   -12.276314    4.992468   20.819062 H    341 MOH     0.0372 ****
2349 C1    -11.532687    4.471544   20.216607 C    341 MOH     0.1166 ****
2350 HC2   -10.617010    5.061054   20.168524 H    341 MOH     0.0372 ****
2351 HC3   -11.868705    4.350294   19.186352 H    341 MOH     0.0372 ****
2352 O1    -11.194360    3.242716   20.800677 O    341 MOH    -0.6497 ****
2353 HO1   -11.898150    2.971231   21.393940 H    341 MOH     0.4215 ****
2354 HC1   -11.560400   -0.684632   25.478896 H    342 MOH     0.0372 ****
2355 C1    -11.599660   -1.754243   25.273835 C    342 MOH     0.1166 ****
2356 HC2   -12.377928   -2.182495   25.905281 H    342 MOH     0.0372 ****
2357 HC3   -10.630866   -2.190660   25.517787 H    342 MOH     0.0372 ****
2358 O1    -11.888335   -2.046140   23.905583 O    342 MOH    -0.6497 ****
2359 HO1   -11.458786   -2.860596   23.633347 H    342 MOH     0.4215 ****
2360 HC1    -7.398859   -2.004499   23.232418 H    343 MOH     0.0372 ****
2361 C1     -7.921361   -1.075326   23.460106 C    343 MOH     0.1166 ****
2362 HC2    -8.953664   -1.288431   23.738706 H    343 MOH     0.0372 ****
2363 HC3    -7.880947   -0.429069   22.584001 H    343 MOH     0.0372 ****
2364 O1     -7.233737   -0.511943   24.526423 O    343 MOH    -0.6497 ****
2365 HO1    -6.771280   -1.227194   24.969072 H    343 MOH     0.4215 ****
2366 HC1   -12.525730    0.140029   22.851287 H    344 MOH     0.0372 ****
2367 C1    -13.462769    0.396001   22.358433 C    344 MOH     0.1166 ****
2368 HC2   -14.301082    0.064095   22.971495 H    344 MOH     0.0372 ****
2369 HC3   -13.481244   -0.102878   21.389697 H    344 MOH     0.0372 ****
2370 O1    -13.493369    1.779554   22.141352 O    344 MOH    -0.6497 ****
2371 HO1   -14.409624    2.020829   21.989324 H    344 MOH     0.4215 ****
2372 HC1   -15.855309   -4.569931   21.143624 H    345 MOH     0.0372 ****
2373 C1    -15.549890   -5.550135   20.776636 C    345 MOH     0.1166 ****
2374 HC2   -14.600727   -5.470527   20.247013 H    345 MOH     0.0372 ****
2375 HC3   -16.316612   -5.942462   20.109834 H    345 MOH     0.0372 ****
2376 O1    -15.396315   -6.470735   21.850731 O    345 MOH    -0.6497 ****
2377 HO1   -14.547033   -6.904703   21.742543 H    345 MOH     0.4215 ****
2378 HC1   -10.014256   -7.218238   27.816591 H    346 MOH     0.0372 ****
2379 C1     -9.143035   -6.714868   27.397276 C    346 MOH     0.1166 ****
2380 HC2    -9.440947   -5.765690   26.953920 H    346 MOH     0.0372 ****
2381 HC3    -8.704248   -7.326424   26.608145 H    346 MOH     0.0372 ****
2382 O1     -8.174241   -6.439708   28.382983 O    346 MOH    -0.6497 ****
2383 HO1    -7.744115   -7.277842   28.566124 H    346 MOH     0.4215 ****
2384 HC1   -18.569432   -0.894472   16.068719 H    347 MOH     0.0372 ****
2385 C1    -17.645672   -0.706269   15.520711 C    347 MOH     0.1166 ****
2386 HC2   -17.055043   -1.621154   15.558188 H    347 MOH     0.0372 ****
2387 HC3   -17.123170    0.117167   16.007907 H    347 MOH     0.0372 ****
2388 O1    -17.918759   -0.353951   14.166601 O    347 MOH    -0.6497 ****
2389 HO1   -17.137026    0.068178   13.803148 H    347 MOH     0.4215 ****
2390 HC1   -14.461585    8.361333   26.089836 H    348 MOH     0.0372 ****
2391 C1    -15.476567    7.977988   25.985891 C    348 MOH     0.1166 ****
2392 HC2   -16.197678    8.795301   26.007104 H    348 MOH     0.0372 ****
2393 HC3   -15.711549    7.283150   26.791993 H    348 MOH     0.0372 ****
2394 O1    -15.604161    7.266003   24.803609 O    348 MOH    -0.6497 ****
2395 HO1   -14.883628    6.632810   24.771789 H    348 MOH     0.4215 ****
2396 HC1   -14.928084   -5.972672   26.162668 H    349 MOH     0.0372 ****
2397 C1    -15.426338   -6.748344   25.582840 C    349 MOH     0.1166 ****
2398 HC2   -14.699454   -7.493805   25.260400 H    349 MOH     0.0372 ****
2399 HC3   -15.888795   -6.274368   24.716635 H    349 MOH     0.0372 ****
2400 O1    -16.401482   -7.379088   26.379750 O    349 MOH    -0.6497 ****
2401 HO1   -15.929787   -7.748144   27.129283 H    349 MOH     0.4215 ****
2402 HC1   -15.603584    5.726091   21.869115 H    350 MOH     0.0372 ****
2403 C1    -15.010645    5.387653   21.019880 C    350 MOH     0.1166 ****
2404 HC2   -14.643451    4.391935   21.268075 H    350 MOH     0.0372 ****
2405 HC3   -14.163672    6.057588   20.867852 H    350 MOH     0.0372 ****
2406 O1    -15.814894    5.336622   19.849619 O    350 MOH    -0.6497 ****
2407 HO1   -15.407862    4.686282   19.271912 H    350 MOH     0.4215 ****
2408 HC1   -19.847109    6.046974   27.531627 H    351 MOH     0.0372 ****
2409 C1    -19.665821    5.008798   27.810934 C    351 MOH     0.1166 ****
2410 HC2   -20.325155    4.371523   27.221914 H    351 MOH     0.0372 ****
2411 HC3   -19.890410    4.854072   28.866644 H    351 MOH     0.0372 ****
2412 O1    -18.335606    4.613206   27.569810 O    351 MOH    -0.6497 ****
2413 HO1   -18.156050    4.721392   26.632894 H    351 MOH     0.4215 ****
2414 HC1   -15.958655    0.258830   31.190197 H    352 MOH     0.0372 ****
2415 C1    -15.504857    1.138196   31.646988 C    352 MOH     0.1166 ****
2416 HC2   -14.667699    1.454997   31.024734 H    352 MOH     0.0372 ****
2417 HC3   -15.201171    0.889165   32.663808 H    352 MOH     0.0372 ****
2418 O1    -16.455176    2.135955   31.611633 O    352 MOH    -0.6497 ****
2419 HO1   -16.783111    2.191477   30.710779 H    352 MOH     0.4215 ****
2420 HC1   -16.589121   -2.340079   23.837701 H    353 MOH     0.0372 ****
2421 C1    -15.661896   -2.516851   24.381466 C    353 MOH     0.1166 ****
2422 HC2   -15.727714   -3.441533   24.954930 H    353 MOH     0.0372 ****
2423 HC3   -15.438462   -1.680350   25.044025 H    353 MOH     0.0372 ****
2424 O1    -14.658462   -2.618913   23.450913 O    353 MOH    -0.6497 ****
2425 HO1   -13.848439   -2.278025   23.837701 H    353 MOH     0.4215 ****
2426 HC1   -18.686057   -2.195967   18.564806 H    354 MOH     0.0372 ****
2427 C1    -18.406042   -3.104320   19.098671 C    354 MOH     0.1166 ****
2428 HC2   -17.597752   -3.599933   18.561270 H    354 MOH     0.0372 ****
2429 HC3   -19.236849   -3.810181   19.122006 H    354 MOH     0.0372 ****
2430 O1    -17.968411   -2.843041   20.418132 O    354 MOH    -0.6497 ****
2431 HO1   -18.315976   -3.547678   20.969676 H    354 MOH     0.4215 ****
2432 HC1    -7.502205   -2.723832   31.968015 H    355 MOH     0.0372 ****
2433 C1     -8.333590   -2.040425   31.798309 C    355 MOH     0.1166 ****
2434 HC2    -9.255618   -2.500521   32.155398 H    355 MOH     0.0372 ****
2435 HC3    -8.404026   -1.852222   30.727042 H    355 MOH     0.0372 ****
2436 O1     -8.005655   -0.819762   32.450261 O    355 MOH    -0.6497 ****
2437 HO1    -7.392509   -1.016946   33.162318 H    355 MOH     0.4215 ****
2438 HC1    -7.742383    0.102471   27.990539 H    356 MOH     0.0372 ****
2439 C1     -8.752168   -0.218413   27.734566 C    356 MOH     0.1166 ****
2440 HC2    -9.449608    0.212289   28.453694 H    356 MOH     0.0372 ****
2441 HC3    -8.833575   -1.304761   27.769215 H    356 MOH     0.0372 ****
2442 O1     -9.107239    0.240867   26.462481 O    356 MOH    -0.6497 ****
2443 HO1    -8.508527   -0.166565   25.833156 H    356 MOH     0.4215 ****
2444 HC1   -11.939142    7.210890   29.264745 H    357 MOH     0.0372 ****
2445 C1    -12.431622    7.647307   28.395711 C    357 MOH     0.1166 ****
2446 HC2   -13.373857    8.134756   28.646027 H    357 MOH     0.0372 ****
2447 HC3   -12.683924    6.812848   27.740930 H    357 MOH     0.0372 ****
2448 O1    -11.593886    8.572398   27.695675 O    357 MOH    -0.6497 ****
2449 HO1   -12.134864    9.272135   27.323737 H    357 MOH     0.4215 ****
2450 HC1    -5.598104   -4.189036   26.925636 H    358 MOH     0.0372 ****
2451 C1     -6.503967   -3.864478   26.414398 C    358 MOH     0.1166 ****
2452 HC2    -7.389622   -4.257213   26.913615 H    358 MOH     0.0372 ****
2453 HC3    -6.496461   -4.212714   25.381315 H    358 MOH     0.0372 ****
2454 O1     -6.596920   -2.472351   26.428540 O    358 MOH    -0.6497 ****
2455 HO1    -6.326720   -2.186986   27.304645 H    358 MOH     0.4215 ****
2456 HC1   -13.063820    0.374772   28.910485 H    359 MOH     0.0372 ****
2457 C1    -12.400445   -0.447032   29.179893 C    359 MOH     0.1166 ****
2458 HC2   -11.384308   -0.060829   29.257674 H    359 MOH     0.0372 ****
2459 HC3   -12.414301   -1.229644   28.421167 H    359 MOH     0.0372 ****
2460 O1    -12.778609   -0.874059   30.466827 O    359 MOH    -0.6497 ****
2461 HO1   -12.724916   -0.104920   31.038169 H    359 MOH     0.4215 ****
2462 HC1    -9.283908    6.574022   33.013826 H    360 MOH     0.0372 ****
2463 C1     -9.623390    5.828153   32.294698 C    360 MOH     0.1166 ****
2464 HC2   -10.129726    4.990836   32.776238 H    360 MOH     0.0372 ****
2465 HC3    -8.736580    5.431335   31.799723 H    360 MOH     0.0372 ****
2466 O1    -10.464589    6.448690   31.340104 O    360 MOH    -0.6497 ****
2467 HO1    -9.935159    7.133731   30.924325 H    360 MOH     0.4215 ****
2468 HC1   -18.577515   -0.662179   24.032862 H    361 MOH     0.0372 ****
2469 C1    -19.207982   -0.975713   24.864420 C    361 MOH     0.1166 ****
2470 HC2   -20.184281   -1.288431   24.493896 H    361 MOH     0.0372 ****
2471 HC3   -19.378300   -0.148602   25.554556 H    361 MOH     0.0372 ****
2472 O1    -18.605805   -2.029810   25.560213 O    361 MOH    -0.6497 ****
2473 HO1   -19.256479   -2.384170   26.169739 H    361 MOH     0.4215 ****
2474 HC1   -15.915353    4.070236   27.176659 H    362 MOH     0.0372 ****
2475 C1    -15.258906    4.345803   28.001853 C    362 MOH     0.1166 ****
2476 HC2   -15.805657    4.309877   28.945133 H    362 MOH     0.0372 ****
2477 HC3   -14.912496    5.368465   27.851239 H    362 MOH     0.0372 ****
2478 O1    -14.140001    3.473785   28.066906 O    362 MOH    -0.6497 ****
2479 HO1   -13.534938    3.800384   28.737244 H    362 MOH     0.4215 ****
2480 HC1   -17.301571    5.709353   33.736489 H    363 MOH     0.0372 ****
2481 C1    -16.719602    5.951852   32.846948 C    363 MOH     0.1166 ****
2482 HC2   -16.755975    5.130048   32.132063 H    363 MOH     0.0372 ****
2483 HC3   -15.692496    6.095147   33.184238 H    363 MOH     0.0372 ****
2484 O1    -17.185524    7.196193   32.315204 O    363 MOH    -0.6497 ****
2485 HO1   -16.769832    7.873477   32.853312 H    363 MOH     0.4215 ****
2486 HC1   -20.084977    1.038176   22.072055 H    364 MOH     0.0372 ****
2487 C1    -20.218345    0.015514   21.719209 C    364 MOH     0.1166 ****
2488 HC2   -21.217161   -0.062054   21.290702 H    364 MOH     0.0372 ****
2489 HC3   -20.145021   -0.701370   22.536624 H    364 MOH     0.0372 ****
2490 O1    -19.298048   -0.261687   20.707339 O    364 MOH    -0.6497 ****
2491 HO1   -19.182001   -1.209640   20.615415 H    364 MOH     0.4215 ****
2492 HC1   -17.897974   -8.236409   21.029780 H    365 MOH     0.0372 ****
2493 C1    -18.634673   -7.890623   21.754564 C    365 MOH     0.1166 ****
2494 HC2   -18.905450   -8.698546   22.435508 H    365 MOH     0.0372 ****
2495 HC3   -19.543422   -7.590969   21.234134 H    365 MOH     0.0372 ****
2496 O1    -18.194732   -6.809173   22.548645 O    365 MOH    -0.6497 ****
2497 HO1   -17.247300   -6.877759   22.684410 H    365 MOH     0.4215 ****
2498 HC1   -16.949388    8.318876   21.381919 H    366 MOH     0.0372 ****
2499 C1    -17.796938    7.654247   21.551625 C    366 MOH     0.1166 ****
2500 HC2   -18.662386    8.298055   21.707895 H    366 MOH     0.0372 ****
2501 HC3   -17.564266    7.052489   22.429851 H    366 MOH     0.0372 ****
2502 O1    -17.930306    6.952469   20.336108 O    366 MOH    -0.6497 ****
2503 HO1   -17.084487    6.546670   20.131047 H    366 MOH     0.4215 ****
2504 HC1    -5.998208   -5.294980   31.362731 H    367 MOH     0.0372 ****
2505 C1     -5.614270   -4.698121   30.535416 C    367 MOH     0.1166 ****
2506 HC2    -4.926646   -5.315393   29.957003 H    367 MOH     0.0372 ****
2507 HC3    -5.113130   -3.836309   30.977358 H    367 MOH     0.0372 ****
2508 O1     -6.679481   -4.258438   29.748407 O    367 MOH    -0.6497 ****
2509 HO1    -7.208911   -5.014514   29.486777 H    367 MOH     0.4215 ****
2510 HC1   -20.919825    9.324799   24.631782 H    368 MOH     0.0372 ****
2511 C1    -20.048604    8.669561   24.612690 C    368 MOH     0.1166 ****
2512 HC2   -20.049181    8.098013   23.684966 H    368 MOH     0.0372 ****
2513 HC3   -20.076317    7.960434   25.440712 H    368 MOH     0.0372 ****
2514 O1    -18.870232    9.454214   24.686229 O    368 MOH    -0.6497 ****
2515 HO1   -18.899677    9.964933   25.498695 H    368 MOH     0.4215 ****
2516 HC1    -6.106172    0.161667   30.098424 H    369 MOH     0.0372 ****
2517 C1     -5.465891   -0.713618   30.207319 C    369 MOH     0.1166 ****
2518 HC2    -5.616002   -1.114518   31.209996 H    369 MOH     0.0372 ****
2519 HC3    -4.427238   -0.400900   30.101253 H    369 MOH     0.0372 ****
2520 O1     -5.845210   -1.655447   29.203934 O    369 MOH    -0.6497 ****
2521 HO1    -5.916224   -2.528690   29.596379 H    369 MOH     0.4215 ****
2522 HC1    -7.970436    2.375189   34.519256 H    370 MOH     0.0372 ****
2523 C1     -7.111916    2.736897   33.953570 C    370 MOH     0.1166 ****
2524 HC2    -7.460059    3.256189   33.061202 H    370 MOH     0.0372 ****
2525 HC3    -6.482605    1.896314   33.660121 H    370 MOH     0.0372 ****
2526 O1     -6.362516    3.626470   34.749066 O    370 MOH    -0.6497 ****
2527 HO1    -6.195084    3.208015   35.596887 H    370 MOH     0.4215 ****
2528 HC1    -7.171383    3.696280   24.587234 H    371 MOH     0.0372 ****
2529 C1     -7.618252    4.110244   23.683552 C    371 MOH     0.1166 ****
2530 HC2    -8.645936    4.429086   23.855379 H    371 MOH     0.0372 ****
2531 HC3    -7.587653    3.337838   22.914219 H    371 MOH     0.0372 ****
2532 O1     -6.807653    5.174547   23.295350 O    371 MOH    -0.6497 ****
2533 HO1    -6.625787    5.720783   24.063268 H    371 MOH     0.4215 ****
2534 HC1   -13.945434    1.443974   19.181403 H    372 MOH     0.0372 ****
2535 C1    -14.869772    1.959184   18.919773 C    372 MOH     0.1166 ****
2536 HC2   -15.582799    1.912235   19.743553 H    372 MOH     0.0372 ****
2537 HC3   -15.305671    1.512968   18.026697 H    372 MOH     0.0372 ****
2538 O1    -14.631904    3.308444   18.640466 O    372 MOH    -0.6497 ****
2539 HO1   -14.127299    3.338655   17.824465 H    372 MOH     0.4215 ****
2540 HC1   -23.685910   -8.775705   19.720925 H    373 MOH     0.0372 ****
2541 C1    -23.172069   -8.466661   20.630972 C    373 MOH     0.1166 ****
2542 HC2   -22.088960   -8.492789   20.515006 H    373 MOH     0.0372 ****
2543 HC3   -23.475178   -9.105978   21.461115 H    373 MOH     0.0372 ****
2544 O1    -23.611432   -7.209256   20.913814 O    373 MOH    -0.6497 ****
2545 HO1   -23.943409   -6.847140   20.088621 H    373 MOH     0.4215 ****
2546 HC1   -21.834348   -5.566874   23.454449 H    374 MOH     0.0372 ****
2547 C1    -22.716539   -4.983487   23.715371 C    374 MOH     0.1166 ****
2548 HC2   -22.412276   -3.984911   24.026498 H    374 MOH     0.0372 ****
2549 HC3   -23.251743   -5.473385   24.528544 H    374 MOH     0.0372 ****
2550 O1    -23.537531   -4.928373   22.547938 O    374 MOH    -0.6497 ****
2551 HO1   -23.628175   -5.817130   22.195092 H    374 MOH     0.4215 ****
2552 HC1   -14.991016    8.178438   31.366267 H    375 MOH     0.0372 ****
2553 C1    -14.045316    8.521367   31.786288 C    375 MOH     0.1166 ****
2554 HC2   -14.159054    9.495855   32.262171 H    375 MOH     0.0372 ****
2555 HC3   -13.315545    8.634860   30.984429 H    375 MOH     0.0372 ****
2556 O1    -13.603643    7.599134   32.758560 O    375 MOH    -0.6497 ****
2557 HO1   -12.772258    7.210890   32.476424 H    375 MOH     0.4215 ****
2558 HC1   -15.072999    0.112677   26.437025 H    376 MOH     0.0372 ****
2559 C1    -14.291267    0.785878   26.085593 C    376 MOH     0.1166 ****
2560 HC2   -13.731815    0.351094   25.257571 H    376 MOH     0.0372 ****
2561 HC3   -13.605952    0.990819   26.907251 H    376 MOH     0.0372 ****
2562 O1    -14.865153    1.985312   25.640116 O    376 MOH    -0.6497 ****
2563 HO1   -14.670009    2.628711   26.326010 H    376 MOH     0.4215 ****
2564 HC1   -10.173143   22.853576   26.708554 H    377 MOH     0.0372 ****
2565 C1    -11.209487   22.992381   27.015439 C    377 MOH     0.1166 ****
2566 HC2   -11.772981   23.356538   26.157011 H    377 MOH     0.0372 ****
2567 HC3   -11.279346   23.742333   27.803863 H    377 MOH     0.0372 ****
2568 O1    -11.734875   21.749673   27.432632 O    377 MOH    -0.6497 ****
2569 HO1   -12.497555   21.901949   27.994781 H    377 MOH     0.4215 ****
2570 HC1    -3.944111    7.447102   21.893157 H    378 MOH     0.0372 ****
2571 C1     -4.131172    6.461183   22.318128 C    378 MOH     0.1166 ****
2572 HC2    -4.523193    6.555896   23.330705 H    378 MOH     0.0372 ****
2573 HC3    -3.173926    5.944748   22.386718 H    378 MOH     0.0372 ****
2574 O1     -4.972372    5.657342   21.468893 O    378 MOH    -0.6497 ****
2575 HO1    -5.688286    5.311147   22.006294 H    378 MOH     0.4215 ****
2576 HC1    -1.313703    7.919037   28.530061 H    379 MOH     0.0372 ****
2577 C1     -2.162408    8.353822   29.058270 C    379 MOH     0.1166 ****
2578 HC2    -2.298663    9.380974   28.720273 H    379 MOH     0.0372 ****
2579 HC3    -1.997863    8.341574   30.135901 H    379 MOH     0.0372 ****
2580 O1     -3.328078    7.655717   28.724516 O    379 MOH    -0.6497 ****
2581 HO1    -3.300943    6.855142   29.254139 H    379 MOH     0.4215 ****
2582 HC1    -2.419329   14.994797   18.916238 H    380 MOH     0.0372 ****
2583 C1     -3.211453   14.462441   19.442325 C    380 MOH     0.1166 ****
2584 HC2    -3.184318   14.720045   20.500864 H    380 MOH     0.0372 ****
2585 HC3    -3.045754   13.394871   19.300197 H    380 MOH     0.0372 ****
2586 O1     -4.440055   14.878038   18.886539 O    380 MOH    -0.6497 ****
2587 HO1    -5.134607   14.519187   19.444446 H    380 MOH     0.4215 ****
2588 HC1    -1.723044   22.885828   17.796888 H    381 MOH     0.0372 ****
2589 C1     -1.185531   23.228348   16.912297 C    381 MOH     0.1166 ****
2590 HC2    -1.513466   22.654351   16.045384 H    381 MOH     0.0372 ****
2591 HC3    -0.126093   23.043820   17.090488 H    381 MOH     0.0372 ****
2592 O1     -1.445916   24.609044   16.643596 O    381 MOH    -0.6497 ****
2593 HO1    -1.186686   24.813984   15.742742 H    381 MOH     0.4215 ****
2594 HC1    -7.264452   20.028906   20.865731 H    382 MOH     0.0372 ****
2595 C1     -7.218842   19.574118   19.875781 C    382 MOH     0.1166 ****
2596 HC2    -6.301432   18.995222   19.766887 H    382 MOH     0.0372 ****
2597 HC3    -7.229234   20.351831   19.112813 H    382 MOH     0.0372 ****
2598 O1     -8.322158   18.737617   19.658700 O    382 MOH    -0.6497 ****
2599 HO1    -8.062928   17.850085   19.916087 H    382 MOH     0.4215 ****
2600 HC1     0.842700   15.472039   19.361008 H    383 MOH     0.0372 ****
2601 C1      1.041309   16.432647   19.835476 C    383 MOH     0.1166 ****
2602 HC2     2.105943   16.649835   19.752038 H    383 MOH     0.0372 ****
2603 HC3     0.812101   16.397538   20.900379 H    383 MOH     0.0372 ****
2604 O1      0.248029   17.428365   19.184231 O    383 MOH    -0.6497 ****
2605 HO1     0.295372   18.204445   19.747795 H    383 MOH     0.4215 ****
2606 HC1   -13.582396   14.185240   27.806691 H    384 MOH     0.0372 ****
2607 C1    -12.667873   14.491426   27.298988 C    384 MOH     0.1166 ****
2608 HC2   -12.072625   15.145848   27.936092 H    384 MOH     0.0372 ****
2609 HC3   -12.943270   15.037663   26.396720 H    384 MOH     0.0372 ****
2610 O1    -11.965816   13.352005   26.900887 O    384 MOH    -0.6497 ****
2611 HO1   -11.031085   13.550822   26.990690 H    384 MOH     0.4215 ****
2612 HC1    -0.316042   10.004778   24.372981 H    385 MOH     0.0372 ****
2613 C1     -0.268699   10.728194   25.187568 C    385 MOH     0.1166 ****
2614 HC2    -1.061978   11.455692   25.016448 H    385 MOH     0.0372 ****
2615 HC3     0.692012   11.241770   25.140899 H    385 MOH     0.0372 ****
2616 O1     -0.454029   10.086427   26.481573 O    385 MOH    -0.6497 ****
2617 HO1    -0.645709   10.762078   27.137061 H    385 MOH     0.4215 ****
2618 HC1   -16.636579   13.847619   22.950989 H    386 MOH     0.0372 ****
2619 C1    -16.593855   14.089302   24.013063 C    386 MOH     0.1166 ****
2620 HC2   -15.556934   14.027248   24.343989 H    386 MOH     0.0372 ****
2621 HC3   -17.191413   13.387523   24.595012 H    386 MOH     0.0372 ****
2622 O1    -17.027445   15.383041   24.282471 O    386 MOH    -0.6497 ****
2623 HO1   -17.797053   15.574509   23.741534 H    386 MOH     0.4215 ****
2624 HC1   -13.327207   15.957038   23.337776 H    387 MOH     0.0372 ****
2625 C1    -13.867607   16.826607   22.964424 C    387 MOH     0.1166 ****
2626 HC2   -14.311012   16.497150   22.024679 H    387 MOH     0.0372 ****
2627 HC3   -13.144765   17.629631   22.818053 H    387 MOH     0.0372 ****
2628 O1    -14.858918   17.165044   23.957909 O    387 MOH    -0.6497 ****
2629 HO1   -15.494580   16.451018   24.040640 H    387 MOH     0.4215 ****
2630 HC1   -14.883744    9.185015   19.028668 H    388 MOH     0.0372 ****
2631 C1    -14.470938   10.192572   18.991898 C    388 MOH     0.1166 ****
2632 HC2   -14.556386   10.663282   19.971241 H    388 MOH     0.0372 ****
2633 HC3   -15.047711   10.780449   18.277720 H    388 MOH     0.0372 ****
2634 O1    -13.131486   10.137050   18.560563 O    388 MOH    -0.6497 ****
2635 HO1   -13.097999    9.476504   17.864770 H    388 MOH     0.4215 ****
2636 HC1     1.229525    7.341774   24.977557 H    389 MOH     0.0372 ****
2637 C1      0.549406    6.773084   25.611832 C    389 MOH     0.1166 ****
2638 HC2     0.903899    6.810235   26.642086 H    389 MOH     0.0372 ****
2639 HC3     0.494558    5.736542   25.280199 H    389 MOH     0.0372 ****
2640 O1     -0.683237    7.396071   25.529807 O    389 MOH    -0.6497 ****
2641 HO1    -0.581046    8.288910   25.865683 H    389 MOH     0.4215 ****
2642 HC1    -4.902512   13.805161   29.961246 H    390 MOH     0.0372 ****
2643 C1     -5.042808   13.650843   28.892100 C    390 MOH     0.1166 ****
2644 HC2    -5.239108   14.605328   28.402782 H    390 MOH     0.0372 ****
2645 HC3    -5.877080   12.971926   28.716031 H    390 MOH     0.0372 ****
2646 O1     -3.867323   13.096442   28.340557 O    390 MOH    -0.6497 ****
2647 HO1    -3.220691   12.995605   29.042714 H    390 MOH     0.4215 ****
2648 HC1    -7.446318   13.598996   22.592486 H    391 MOH     0.0372 ****
2649 C1     -7.607398   12.586132   22.960888 C    391 MOH     0.1166 ****
2650 HC2    -8.358531   12.631039   23.748605 H    391 MOH     0.0372 ****
2651 HC3    -6.682483   12.185640   23.375960 H    391 MOH     0.0372 ****
2652 O1     -8.058886   11.739425   21.904471 O    391 MOH    -0.6497 ****
2653 HO1    -7.654164   10.881287   22.054378 H    391 MOH     0.4215 ****
2654 HC1     1.559192    7.716138   30.206612 H    392 MOH     0.0372 ****
2655 C1      1.392915    7.803095   31.280707 C    392 MOH     0.1166 ****
2656 HC2     1.465084    8.859233   31.540215 H    392 MOH     0.0372 ****
2657 HC3     2.179843    7.249102   31.793359 H    392 MOH     0.0372 ****
2658 O1      0.067319    7.284211   31.514759 O    392 MOH    -0.6497 ****
2659 HO1    -0.243873    7.632855   32.353388 H    392 MOH     0.4215 ****
2660 HC1    -3.645043   26.642937   22.379647 H    393 MOH     0.0372 ****
2661 C1     -4.225858   27.024241   23.219689 C    393 MOH     0.1166 ****
2662 HC2    -3.928522   28.031389   23.511725 H    393 MOH     0.0372 ****
2663 HC3    -4.018012   26.369002   24.066096 H    393 MOH     0.0372 ****
2664 O1     -5.605148   26.980558   22.934725 O    393 MOH    -0.6497 ****
2665 HO1    -6.010447   26.305724   23.484147 H    393 MOH     0.4215 ****
2666 HC1     1.152737   13.854151   29.025036 H    394 MOH     0.0372 ****
2667 C1      1.135994   12.847002   28.607136 C    394 MOH     0.1166 ****
2668 HC2     1.637711   12.188498   29.314950 H    394 MOH     0.0372 ****
2669 HC3     1.687364   12.818425   27.666684 H    394 MOH     0.0372 ****
2670 O1     -0.206923   12.411401   28.457937 O    394 MOH    -0.6497 ****
2671 HO1    -0.698825   12.672272   29.240704 H    394 MOH     0.4215 ****
2672 HC1    -4.712564   17.645144   28.156709 H    395 MOH     0.0372 ****
2673 C1     -5.776043   17.846003   28.025187 C    395 MOH     0.1166 ****
2674 HC2    -6.358012   16.924995   28.052057 H    395 MOH     0.0372 ****
2675 HC3    -5.941165   18.316713   27.055744 H    395 MOH     0.0372 ****
2676 O1     -6.226377   18.736392   29.004530 O    395 MOH    -0.6497 ****
2677 HO1    -6.116103   19.630864   28.674311 H    395 MOH     0.4215 ****
2678 HC1    -0.999624   20.572693   25.360102 H    396 MOH     0.0372 ****
2679 C1     -1.403770   20.918479   24.409043 C    396 MOH     0.1166 ****
2680 HC2    -2.336768   20.395105   24.196911 H    396 MOH     0.0372 ****
2681 HC3    -0.682659   20.773551   23.605063 H    396 MOH     0.0372 ****
2682 O1     -1.650298   22.284478   24.563192 O    396 MOH    -0.6497 ****
2683 HO1    -0.825842   22.740083   24.751283 H    396 MOH     0.4215 ****
2684 HC1    -5.232179    9.316879   30.563701 H    397 MOH     0.0372 ****
2685 C1     -5.418086    9.902716   29.663554 C    397 MOH     0.1166 ****
2686 HC2    -5.400188    9.278912   28.769771 H    397 MOH     0.0372 ****
2687 HC3    -4.670418   10.688185   29.554659 H    397 MOH     0.0372 ****
2688 O1     -6.660544   10.491001   29.792954 O    397 MOH    -0.6497 ****
2689 HO1    -6.959034   10.601637   28.887150 H    397 MOH     0.4215 ****
2690 HC1    -4.047457   12.891910   31.982864 H    398 MOH     0.0372 ****
2691 C1     -3.293437   12.138283   31.755175 C    398 MOH     0.1166 ****
2692 HC2    -3.779566   11.248710   31.355660 H    398 MOH     0.0372 ****
2693 HC3    -2.804422   11.848835   32.685021 H    398 MOH     0.0372 ****
2694 O1     -2.359284   12.680437   30.810481 O    398 MOH    -0.6497 ****
2695 HO1    -2.142778   13.578175   31.069989 H    398 MOH     0.4215 ****
2696 HC1    -5.802024   21.244670   22.896542 H    399 MOH     0.0372 ****
2697 C1     -6.039315   20.958079   23.921846 C    399 MOH     0.1166 ****
2698 HC2    -5.277213   20.295492   24.331261 H    399 MOH     0.0372 ****
2699 HC3    -6.992520   20.429398   23.902755 H    399 MOH     0.0372 ****
2700 O1     -6.140929   22.084436   24.759768 O    399 MOH    -0.6497 ****
2701 HO1    -5.367279   22.640879   24.640267 H    399 MOH     0.4215 ****
2702 HC1    -8.110848    6.262366   29.248482 H    400 MOH     0.0372 ****
2703 C1     -8.517880    7.262982   29.103525 C    400 MOH     0.1166 ****
2704 HC2    -9.563461    7.217258   28.798055 H    400 MOH     0.0372 ****
2705 HC3    -7.961314    7.720629   28.286817 H    400 MOH     0.0372 ****
2706 O1     -8.363150    8.086827   30.260352 O    400 MOH    -0.6497 ****
2707 HO1    -8.080248    8.967011   30.000136 H    400 MOH     0.4215 ****
2708 HC1    -8.704941   10.667773   31.470919 H    401 MOH     0.0372 ****
2709 C1     -8.616607   11.653693   31.927002 C    401 MOH     0.1166 ****
2710 HC2    -9.217628   11.685536   32.834927 H    401 MOH     0.0372 ****
2711 HC3    -8.968790   12.388948   31.203632 H    401 MOH     0.0372 ****
2712 O1     -7.276577   11.857409   32.234594 O    401 MOH    -0.6497 ****
2713 HO1    -6.791602   11.390781   31.550822 H    401 MOH     0.4215 ****
2714 HC1    -6.741373    5.830439   32.284798 H    402 MOH     0.0372 ****
2715 C1     -5.665192    5.838604   32.115093 C    402 MOH     0.1166 ****
2716 HC2    -5.244881    6.698783   32.634816 H    402 MOH     0.0372 ****
2717 HC3    -5.461387    5.899025   31.045947 H    402 MOH     0.0372 ****
2718 O1     -5.071676    4.693876   32.615724 O    402 MOH    -0.6497 ****
2719 HO1    -5.533556    4.432597   33.414755 H    402 MOH     0.4215 ****
2720 HC1   -10.095201   20.498392   24.883512 H    403 MOH     0.0372 ****
2721 C1    -10.677747   19.625557   25.179082 C    403 MOH     0.1166 ****
2722 HC2   -10.341729   18.710673   24.691886 H    403 MOH     0.0372 ****
2723 HC3   -11.697925   19.805594   24.841792 H    403 MOH     0.0372 ****
2724 O1    -10.684675   19.478588   26.581982 O    403 MOH    -0.6497 ****
2725 HO1   -10.871159   20.340400   26.963113 H    403 MOH     0.4215 ****
2726 HC1   -10.926008   17.483886   29.154437 H    404 MOH     0.0372 ****
2727 C1     -9.894283   17.200154   28.948669 C    404 MOH     0.1166 ****
2728 HC2    -9.623506   16.374268   29.605571 H    404 MOH     0.0372 ****
2729 HC3    -9.245918   18.050943   29.159386 H    404 MOH     0.0372 ****
2730 O1     -9.756296   16.880904   27.586781 O    404 MOH    -0.6497 ****
2731 HO1   -10.053054   17.673722   27.134233 H    404 MOH     0.4215 ****
2732 HC1    -5.431942   16.756388   23.467884 H    405 MOH     0.0372 ****
2733 C1     -5.417509   17.463882   22.638448 C    405 MOH     0.1166 ****
2734 HC2    -6.408242   17.894992   22.497026 H    405 MOH     0.0372 ****
2735 HC3    -5.078604   16.970718   21.727694 H    405 MOH     0.0372 ****
2736 O1     -4.540514   18.515530   22.945332 O    405 MOH    -0.6497 ****
2737 HO1    -4.344215   18.522470   23.885077 H    405 MOH     0.4215 ****
2738 HC1   -14.229029   13.300158   21.251811 H    406 MOH     0.0372 ****
2739 C1    -13.440945   13.334451   20.499450 C    406 MOH     0.1166 ****
2740 HC2   -13.861256   13.725961   19.572433 H    406 MOH     0.0372 ****
2741 HC3   -13.043151   12.336692   20.312773 H    406 MOH     0.0372 ****
2742 O1    -12.434624   14.234638   20.849467 O    406 MOH    -0.6497 ****
2743 HO1   -11.607281   13.769643   20.705925 H    406 MOH     0.4215 ****
2744 HC1   -11.025312   12.679620   18.533693 H    407 MOH     0.0372 ****
2745 C1    -10.595186   12.109706   19.358179 C    407 MOH     0.1166 ****
2746 HC2    -9.819804   11.465898   18.943108 H    407 MOH     0.0372 ****
2747 HC3   -11.340545   11.460999   19.818506 H    407 MOH     0.0372 ****
2748 O1    -10.025919   13.004178   20.297924 O    407 MOH    -0.6497 ****
2749 HO1    -9.611381   12.464882   20.974625 H    407 MOH     0.4215 ****
2750 HC1    -0.678040   21.394905   20.819062 H    408 MOH     0.0372 ****
2751 C1      0.065587   20.873980   20.216607 C    408 MOH     0.1166 ****
2752 HC2     0.981264   21.463491   20.168524 H    408 MOH     0.0372 ****
2753 HC3    -0.270431   20.752730   19.186352 H    408 MOH     0.0372 ****
2754 O1      0.403914   19.645153   20.800677 O    408 MOH    -0.6497 ****
2755 HO1    -0.299876   19.373668   21.393940 H    408 MOH     0.4215 ****
2756 HC1     0.037874   15.717804   25.478896 H    409 MOH     0.0372 ****
2757 C1     -0.001386   14.648194   25.273835 C    409 MOH     0.1166 ****
2758 HC2    -0.779654   14.219941   25.905281 H    409 MOH     0.0372 ****
2759 HC3     0.967408   14.211776   25.517787 H    409 MOH     0.0372 ****
2760 O1     -0.290061   14.356296   23.905583 O    409 MOH    -0.6497 ****
2761 HO1     0.139488   13.541841   23.633347 H    409 MOH     0.4215 ****
2762 HC1     4.199415   14.397938   23.232418 H    410 MOH     0.0372 ****
2763 C1      3.676913   15.327111   23.460106 C    410 MOH     0.1166 ****
2764 HC2     2.644610   15.114005   23.738706 H    410 MOH     0.0372 ****
2765 HC3     3.717327   15.973368   22.584001 H    410 MOH     0.0372 ****
2766 O1      4.364537   15.890493   24.526423 O    410 MOH    -0.6497 ****
2767 HO1     4.826994   15.175242   24.969072 H    410 MOH     0.4215 ****
2768 HC1    -0.927456   16.542466   22.851287 H    411 MOH     0.0372 ****
2769 C1     -1.864495   16.798438   22.358433 C    411 MOH     0.1166 ****
2770 HC2    -2.702808   16.466532   22.971495 H    411 MOH     0.0372 ****
2771 HC3    -1.882970   16.299558   21.389697 H    411 MOH     0.0372 ****
2772 O1     -1.895095   18.181991   22.141352 O    411 MOH    -0.6497 ****
2773 HO1    -2.811350   18.423266   21.989324 H    411 MOH     0.4215 ****
2774 HC1    -4.257035   11.832505   21.143624 H    412 MOH     0.0372 ****
2775 C1     -3.951616   10.852301   20.776636 C    412 MOH     0.1166 ****
2776 HC2    -3.002453   10.931910   20.247013 H    412 MOH     0.0372 ****
2777 HC3    -4.718338   10.459975   20.109834 H    412 MOH     0.0372 ****
2778 O1     -3.798041    9.931701   21.850731 O    412 MOH    -0.6497 ****
2779 HO1    -2.948759    9.497733   21.742543 H    412 MOH     0.4215 ****
2780 HC1     1.584018    9.184199   27.816591 H    413 MOH     0.0372 ****
2781 C1      2.455239    9.687569   27.397276 C    413 MOH     0.1166 ****
2782 HC2     2.157327   10.636746   26.953920 H    413 MOH     0.0372 ****
2783 HC3     2.894026    9.076013   26.608145 H    413 MOH     0.0372 ****
2784 O1      3.424033    9.962728   28.382983 O    413 MOH    -0.6497 ****
2785 HO1     3.854159    9.124594   28.566124 H    413 MOH     0.4215 ****
2786 HC1    -6.971158   15.507965   16.068719 H    414 MOH     0.0372 ****
2787 C1     -6.047398   15.696167   15.520711 C    414 MOH     0.1166 ****
2788 HC2    -5.456768   14.781283   15.558188 H    414 MOH     0.0372 ****
2789 HC3    -5.524896   16.519604   16.007907 H    414 MOH     0.0372 ****
2790 O1     -6.320484   16.048485   14.166601 O    414 MOH    -0.6497 ****
2791 HO1    -5.538752   16.470614   13.803148 H    414 MOH     0.4215 ****
2792 HC1    -9.384482   10.769835   26.979376 H    415 MOH     0.0372 ****
2793 C1     -8.527695   10.511822   26.355708 C    415 MOH     0.1166 ****
2794 HC2    -8.341788   11.305049   25.632338 H    415 MOH     0.0372 ****
2795 HC3    -8.773646    9.607960   25.798508 H    415 MOH     0.0372 ****
2796 O1     -7.364334   10.321170   27.156860 O    415 MOH    -0.6497 ****
2797 HO1    -6.668049    9.973343   26.595417 H    415 MOH     0.4215 ****
2798 HC1    -3.329810   10.429764   26.162668 H    416 MOH     0.0372 ****
2799 C1     -3.828063    9.654092   25.582840 C    416 MOH     0.1166 ****
2800 HC2    -3.101179    8.908631   25.260400 H    416 MOH     0.0372 ****
2801 HC3    -4.290521   10.128069   24.716635 H    416 MOH     0.0372 ****
2802 O1     -4.803208    9.023349   26.379750 O    416 MOH    -0.6497 ****
2803 HO1    -4.331513    8.654292   27.129283 H    416 MOH     0.4215 ****
2804 HC1    -4.005310   22.128527   21.869115 H    417 MOH     0.0372 ****
2805 C1     -3.412371   21.790089   21.019880 C    417 MOH     0.1166 ****
2806 HC2    -3.045176   20.794372   21.268075 H    417 MOH     0.0372 ****
2807 HC3    -2.565398   22.460025   20.867852 H    417 MOH     0.0372 ****
2808 O1     -4.216620   21.739058   19.849619 O    417 MOH    -0.6497 ****
2809 HO1    -3.809588   21.088719   19.271912 H    417 MOH     0.4215 ****
2810 HC1    -8.248834   22.449410   27.531627 H    418 MOH     0.0372 ****
2811 C1     -8.067547   21.411235   27.810934 C    418 MOH     0.1166 ****
2812 HC2    -8.726881   20.773959   27.221914 H    418 MOH     0.0372 ****
2813 HC3    -8.292136   21.256509   28.866644 H    418 MOH     0.0372 ****
2814 O1     -6.737331   21.015642   27.569810 O    418 MOH    -0.6497 ****
2815 HO1    -6.557776   21.123828   26.632894 H    418 MOH     0.4215 ****
2816 HC1    -4.990847   14.062357   23.837701 H    419 MOH     0.0372 ****
2817 C1     -4.063622   13.885586   24.381466 C    419 MOH     0.1166 ****
2818 HC2    -4.129440   12.960904   24.954930 H    419 MOH     0.0372 ****
2819 HC3    -3.840188   14.722087   25.044025 H    419 MOH     0.0372 ****
2820 O1     -3.060188   13.783524   23.450913 O    419 MOH    -0.6497 ****
2821 HO1    -2.250165   14.124411   23.837701 H    419 MOH     0.4215 ****
2822 HC1    -7.087783   14.206469   18.564806 H    420 MOH     0.0372 ****
2823 C1     -6.807768   13.298117   19.098671 C    420 MOH     0.1166 ****
2824 HC2    -5.999478   12.802503   18.561270 H    420 MOH     0.0372 ****
2825 HC3    -7.638575   12.592255   19.122006 H    420 MOH     0.0372 ****
2826 O1     -6.370137   13.559396   20.418132 O    420 MOH    -0.6497 ****
2827 HO1    -6.717702   12.854759   20.969676 H    420 MOH     0.4215 ****
2828 HC1    -2.653733    3.718979   30.405309 H    421 MOH     0.0372 ****
2829 C1     -2.072341    4.476279   30.932103 C    421 MOH     0.1166 ****
2830 HC2    -1.018677    4.232147   30.794925 H    421 MOH     0.0372 ****
2831 HC3    -2.302127    4.486894   31.997006 H    421 MOH     0.0372 ****
2832 O1     -2.200513    5.736542   30.379853 O    421 MOH    -0.6497 ****
2833 HO1    -1.402038    6.212968   30.620976 H    421 MOH     0.4215 ****
2834 HC1    -2.433185    3.396463   25.742647 H    422 MOH     0.0372 ****
2835 C1     -2.466094    4.481587   25.643652 C    422 MOH     0.1166 ****
2836 HC2    -2.020957    4.950664   26.521171 H    422 MOH     0.0372 ****
2837 HC3    -3.503593    4.807369   25.568698 H    422 MOH     0.0372 ****
2838 O1     -1.780202    4.858808   24.478340 O    422 MOH    -0.6497 ****
2839 HO1    -1.678588    5.812068   24.518645 H    422 MOH     0.4215 ****
2840 HC1     6.000170   12.213401   26.925636 H    423 MOH     0.0372 ****
2841 C1      5.094308   12.537958   26.414398 C    423 MOH     0.1166 ****
2842 HC2     4.208652   12.145224   26.913615 H    423 MOH     0.0372 ****
2843 HC3     5.101813   12.189723   25.381315 H    423 MOH     0.0372 ****
2844 O1      5.001354   13.930085   26.428540 O    423 MOH    -0.6497 ****
2845 HO1     5.271554   14.215451   27.304645 H    423 MOH     0.4215 ****
2846 HC1    -6.979241   15.740258   24.032862 H    424 MOH     0.0372 ****
2847 C1     -7.609708   15.426723   24.864420 C    424 MOH     0.1166 ****
2848 HC2    -8.586007   15.114005   24.493896 H    424 MOH     0.0372 ****
2849 HC3    -7.780026   16.253834   25.554556 H    424 MOH     0.0372 ****
2850 O1     -7.007531   14.372626   25.560213 O    424 MOH    -0.6497 ****
2851 HO1    -7.658205   14.018267   26.169739 H    424 MOH     0.4215 ****
2852 HC1   -14.979007   10.404861   27.229692 H    425 MOH     0.0372 ****
2853 C1    -14.335261   11.189106   26.833005 C    425 MOH     0.1166 ****
2854 HC2   -14.301197   11.990497   27.570517 H    425 MOH     0.0372 ****
2855 HC3   -14.734210   11.629198   25.918009 H    425 MOH     0.0372 ****
2856 O1    -13.023521   10.724519   26.602488 O    425 MOH    -0.6497 ****
2857 HO1   -12.581271   11.511622   26.277219 H    425 MOH     0.4215 ****
2858 HC1    -8.486703   17.440612   22.072055 H    426 MOH     0.0372 ****
2859 C1     -8.620071   16.417950   21.719209 C    426 MOH     0.1166 ****
2860 HC2    -9.618887   16.340383   21.290702 H    426 MOH     0.0372 ****
2861 HC3    -8.546747   15.701066   22.536624 H    426 MOH     0.0372 ****
2862 O1     -7.699774   16.140749   20.707339 O    426 MOH    -0.6497 ****
2863 HO1    -7.583727   15.192797   20.615415 H    426 MOH     0.4215 ****
2864 HC1    -6.299700    8.166027   21.029780 H    427 MOH     0.0372 ****
2865 C1     -7.036399    8.511814   21.754564 C    427 MOH     0.1166 ****
2866 HC2    -7.307176    7.703890   22.435508 H    427 MOH     0.0372 ****
2867 HC3    -7.945148    8.811468   21.234134 H    427 MOH     0.0372 ****
2868 O1     -6.596458    9.593263   22.548645 O    427 MOH    -0.6497 ****
2869 HO1    -5.649026    9.524678   22.684410 H    427 MOH     0.4215 ****
2870 HC1    -5.351113   24.721312   21.381919 H    428 MOH     0.0372 ****
2871 C1     -6.198664   24.056684   21.551625 C    428 MOH     0.1166 ****
2872 HC2    -7.064112   24.700491   21.707895 H    428 MOH     0.0372 ****
2873 HC3    -5.965991   23.454926   22.429851 H    428 MOH     0.0372 ****
2874 O1     -6.332032   23.354905   20.336108 O    428 MOH    -0.6497 ****
2875 HO1    -5.486213   22.949106   20.131047 H    428 MOH     0.4215 ****
2876 HC1    -7.462483    5.915355   26.791993 H    429 MOH     0.0372 ****
2877 C1     -6.427294    6.219500   26.635722 C    429 MOH     0.1166 ****
2878 HC2    -5.838397    5.316863   26.468138 H    429 MOH     0.0372 ****
2879 HC3    -6.054326    6.776350   27.494150 H    429 MOH     0.0372 ****
2880 O1     -6.429604    6.951081   25.459097 O    429 MOH    -0.6497 ****
2881 HO1    -5.792209    7.660208   25.568698 H    429 MOH     0.4215 ****
2882 HC1    -9.321551   25.727236   24.631782 H    430 MOH     0.0372 ****
2883 C1     -8.450330   25.071997   24.612690 C    430 MOH     0.1166 ****
2884 HC2    -8.450907   24.500450   23.684966 H    430 MOH     0.0372 ****
2885 HC3    -8.478043   24.362870   25.440712 H    430 MOH     0.0372 ****
2886 O1     -7.271958   25.856651   24.686229 O    430 MOH    -0.6497 ****
2887 HO1    -7.301403   26.367369   25.498695 H    430 MOH     0.4215 ****
2888 HC1   -13.506763   18.962153   27.156860 H    431 MOH     0.0372 ****
2889 C1    -13.239450   17.957454   27.485665 C    431 MOH     0.1166 ****
2890 HC2   -12.294905   17.668006   27.025338 H    431 MOH     0.0372 ****
2891 HC3   -14.002130   17.243836   27.175952 H    431 MOH     0.0372 ****
2892 O1    -13.072019   17.965211   28.914727 O    431 MOH    -0.6497 ****
2893 HO1   -13.900516   18.153005   29.361619 H    431 MOH     0.4215 ****
2894 HC1     4.426891   20.098717   24.587234 H    432 MOH     0.0372 ****
2895 C1      3.980022   20.512680   23.683552 C    432 MOH     0.1166 ****
2896 HC2     2.952338   20.831522   23.855379 H    432 MOH     0.0372 ****
2897 HC3     4.010621   19.740275   22.914219 H    432 MOH     0.0372 ****
2898 O1      4.790621   21.576984   23.295350 O    432 MOH    -0.6497 ****
2899 HO1     4.972487   22.123220   24.063268 H    432 MOH     0.4215 ****
2900 HC1    -2.347160   17.846411   19.181403 H    433 MOH     0.0372 ****
2901 C1     -3.271498   18.361620   18.919773 C    433 MOH     0.1166 ****
2902 HC2    -3.984525   18.314672   19.743553 H    433 MOH     0.0372 ****
2903 HC3    -3.707397   17.915405   18.026697 H    433 MOH     0.0372 ****
2904 O1     -3.033629   19.710881   18.640466 O    433 MOH    -0.6497 ****
2905 HO1    -2.529025   19.741091   17.824465 H    433 MOH     0.4215 ****
2906 HC1   -12.087636    7.626731   19.720925 H    434 MOH     0.0372 ****
2907 C1    -11.573795    7.935775   20.630972 C    434 MOH     0.1166 ****
2908 HC2   -10.490686    7.909647   20.515006 H    434 MOH     0.0372 ****
2909 HC3   -11.876904    7.296459   21.461115 H    434 MOH     0.0372 ****
2910 O1    -12.013158    9.193180   20.913814 O    434 MOH    -0.6497 ****
2911 HO1   -12.345135    9.555296   20.088621 H    434 MOH     0.4215 ****
2912 HC1   -10.236074   10.835563   23.454449 H    435 MOH     0.0372 ****
2913 C1    -11.118265   11.418950   23.715371 C    435 MOH     0.1166 ****
2914 HC2   -10.814002   12.417525   24.026498 H    435 MOH     0.0372 ****
2915 HC3   -11.653469   10.929052   24.528544 H    435 MOH     0.0372 ****
2916 O1    -11.939257   11.474063   22.547938 O    435 MOH    -0.6497 ****
2917 HO1   -12.029901   10.585307   22.195092 H    435 MOH     0.4215 ****
2918 HC1    -2.699344    1.843078   28.905535 H    436 MOH     0.0372 ****
2919 C1     -1.861608    2.071289   28.245805 C    436 MOH     0.1166 ****
2920 HC2    -1.504229    3.072722   28.481271 H    436 MOH     0.0372 ****
2921 HC3    -2.212060    2.026381   27.214843 H    436 MOH     0.0372 ****
2922 O1     -0.780809    1.129460   28.450158 O    436 MOH    -0.6497 ****
2923 HO1     0.052308    1.517704   28.172266 H    436 MOH     0.4215 ****
2924 HC1    -8.505755   12.698400   28.520869 H    437 MOH     0.0372 ****
2925 C1     -8.817525   13.741883   28.485514 C    437 MOH     0.1166 ****
2926 HC2    -8.011544   14.399162   28.813611 H    437 MOH     0.0372 ****
2927 HC3    -9.660456   13.865174   29.164336 H    437 MOH     0.0372 ****
2928 O1     -9.270744   14.088077   27.191508 O    437 MOH    -0.6497 ****
2929 HO1    -9.482055   15.023782   27.221207 H    437 MOH     0.4215 ****
2930 HC1   -12.780457   11.869248   29.337577 H    438 MOH     0.0372 ****
2931 C1    -12.009117   11.576125   30.050341 C    438 MOH     0.1166 ****
2932 HC2   -11.111337   11.319745   29.487484 H    438 MOH     0.0372 ****
2933 HC3   -12.339361   10.687777   30.589156 H    438 MOH     0.0372 ****
2934 O1    -11.748732   12.653493   30.958973 O    438 MOH    -0.6497 ****
2935 HO1   -12.414994   12.628590   31.649816 H    438 MOH     0.4215 ****
2936 HC1    -3.474725   16.515113   26.437025 H    439 MOH     0.0372 ****
2937 C1     -2.692993   17.188315   26.085593 C    439 MOH     0.1166 ****
2938 HC2    -2.133540   16.753530   25.257571 H    439 MOH     0.0372 ****
2939 HC3    -2.007678   17.393255   26.907251 H    439 MOH     0.0372 ****
2940 O1     -3.266879   18.387748   25.640116 O    439 MOH    -0.6497 ****
2941 HO1    -3.071735   19.031147   26.326010 H    439 MOH     0.4215 ****
2942 HC1    -3.285470   25.587452   19.028668 H    440 MOH     0.0372 ****
2943 C1     -2.872664   26.595008   18.991898 C    440 MOH     0.1166 ****
2944 HC2    -2.958112   27.065719   19.971241 H    440 MOH     0.0372 ****
2945 HC3    -3.449437   27.182886   18.277720 H    440 MOH     0.0372 ****
2946 O1     -1.533212   26.539487   18.560563 O    440 MOH    -0.6497 ****
2947 HO1    -1.499725   25.878941   17.864770 H    440 MOH     0.4215 ****
2948 HC1    -2.630754   29.702594   21.251811 H    441 MOH     0.0372 ****
2949 C1     -1.842671   29.736887   20.499450 C    441 MOH     0.1166 ****
2950 HC2    -2.262982   30.128397   19.572433 H    441 MOH     0.0372 ****
2951 HC3    -1.444877   28.739128   20.312773 H    441 MOH     0.0372 ****
2952 O1     -0.836350   30.637075   20.849467 O    441 MOH    -0.6497 ****
2953 HO1    -0.009007   30.172080   20.705925 H    441 MOH     0.4215 ****
2954 HC1     0.572962   29.082057   18.533693 H    442 MOH     0.0372 ****
2955 C1      1.003088   28.512142   19.358179 C    442 MOH     0.1166 ****
2956 HC2     1.778470   27.868335   18.943108 H    442 MOH     0.0372 ****
2957 HC3     0.257729   27.863436   19.818506 H    442 MOH     0.0372 ****
2958 O1      1.572356   29.406614   20.297924 O    442 MOH    -0.6497 ****
2959 HO1     1.986893   28.867318   20.974625 H    442 MOH     0.4215 ****
2960 HC1     4.627116   31.910401   16.068719 H    443 MOH     0.0372 ****
2961 C1      5.550876   32.098604   15.520711 C    443 MOH     0.1166 ****
2962 HC2     6.141506   31.183719   15.558188 H    443 MOH     0.0372 ****
2963 HC3     6.073378   32.922040   16.007907 H    443 MOH     0.0372 ****
2964 O1      5.277790   32.450922   14.166601 O    443 MOH    -0.6497 ****
2965 HO1     6.059522   32.873051   13.803148 H    443 MOH     0.4215 ****
2966 HC1    -0.489362   24.029168   19.720925 H    444 MOH     0.0372 ****
2967 C1      0.024479   24.338212   20.630972 C    444 MOH     0.1166 ****
2968 HC2     1.107589   24.312084   20.515006 H    444 MOH     0.0372 ****
2969 HC3    -0.278629   23.698895   21.461115 H    444 MOH     0.0372 ****
2970 O1     -0.414884   25.595617   20.913814 O    444 MOH    -0.6497 ****
2971 HO1    -0.746860   25.957733   20.088621 H    444 MOH     0.4215 ****
2972 HC1   -21.771417  -18.152515   12.503628 H    445 MOH     0.0372 ****
2973 C1    -22.807761  -18.013711   12.810512 C    445 MOH     0.1166 ****
2974 HC2   -23.371254  -17.649553   11.952084 H    445 MOH     0.0372 ****
2975 HC3   -22.877620  -17.263759   13.598936 H    445 MOH     0.0372 ****
2976 O1    -23.333149  -19.256419   13.227705 O    445 MOH    -0.6497 ****
2977 HO1   -24.095829  -19.104142   13.789855 H    445 MOH     0.4215 ****
2978 HC1    -8.905166  -22.705300   15.320741 H    446 MOH     0.0372 ****
2979 C1     -8.471576  -22.512199   16.301498 C    446 MOH     0.1166 ****
2980 HC2    -8.185788  -21.461368   16.352410 H    446 MOH     0.0372 ****
2981 HC3    -7.583611  -23.131511   16.428071 H    446 MOH     0.0372 ****
2982 O1     -9.425936  -22.826958   17.309126 O    446 MOH    -0.6497 ****
2983 HO1    -9.225018  -23.718572   17.601868 H    446 MOH     0.4215 ****
2984 HC1    -4.835424  -24.316656   10.705455 H    447 MOH     0.0372 ****
2985 C1     -5.029991  -23.575277   11.480444 C    447 MOH     0.1166 ****
2986 HC2    -6.094048  -23.533228   11.713083 H    447 MOH     0.0372 ****
2987 HC3    -4.728614  -22.586908   11.133255 H    447 MOH     0.0372 ****
2988 O1     -4.360265  -23.905550   12.691718 O    447 MOH    -0.6497 ****
2989 HO1    -4.577926  -24.800022   12.963954 H    447 MOH     0.4215 ****
2990 HC1   -20.721794  -19.603838   17.172654 H    448 MOH     0.0372 ****
2991 C1    -20.117886  -19.052294   17.893196 C    448 MOH     0.1166 ****
2992 HC2   -19.306131  -19.687529   18.246749 H    448 MOH     0.0372 ****
2993 HC3   -20.766250  -18.766521   18.721925 H    448 MOH     0.0372 ****
2994 O1    -19.613282  -17.928387   17.237708 O    448 MOH    -0.6497 ****
2995 HO1   -18.800372  -17.666700   17.676821 H    448 MOH     0.4215 ****
2996 HC1   -14.017603  -26.011295    4.711311 H    449 MOH     0.0372 ****
2997 C1    -14.809727  -26.543651    5.237399 C    449 MOH     0.1166 ****
2998 HC2   -14.782592  -26.286046    6.295937 H    449 MOH     0.0372 ****
2999 HC3   -14.644028  -27.611220    5.095270 H    449 MOH     0.0372 ****
3000 O1    -16.038329  -26.128054    4.681613 O    449 MOH    -0.6497 ****
3001 HO1   -16.732881  -26.486904    5.239520 H    449 MOH     0.4215 ****
3002 HC1    -9.952480  -19.952482   12.234220 H    450 MOH     0.0372 ****
3003 C1     -9.903982  -21.040055   12.183308 C    450 MOH     0.1166 ****
3004 HC2   -10.282147  -21.394823   11.225179 H    450 MOH     0.0372 ****
3005 HC3   -10.510777  -21.486679   12.971025 H    450 MOH     0.0372 ****
3006 O1     -8.567416  -21.474432   12.256848 O    450 MOH    -0.6497 ****
3007 HO1    -8.599748  -22.433815   12.278061 H    450 MOH     0.4215 ****
3008 HC1   -18.862726  -20.977185    6.660804 H    451 MOH     0.0372 ****
3009 C1    -18.817115  -21.431974    5.670855 C    451 MOH     0.1166 ****
3010 HC2   -17.899706  -22.010870    5.561960 H    451 MOH     0.0372 ****
3011 HC3   -18.827508  -20.654261    4.907887 H    451 MOH     0.0372 ****
3012 O1    -19.920432  -22.268475    5.453773 O    451 MOH    -0.6497 ****
3013 HO1   -19.661202  -23.156006    5.711160 H    451 MOH     0.4215 ****
3014 HC1   -10.755574  -25.534053    5.156081 H    452 MOH     0.0372 ****
3015 C1    -10.556965  -24.573444    5.630550 C    452 MOH     0.1166 ****
3016 HC2    -9.492331  -24.356256    5.547111 H    452 MOH     0.0372 ****
3017 HC3   -10.786173  -24.608554    6.695453 H    452 MOH     0.0372 ****
3018 O1    -11.350244  -23.577727    4.979305 O    452 MOH    -0.6497 ****
3019 HO1   -11.302902  -22.801647    5.542869 H    452 MOH     0.4215 ****
3020 HC1   -11.914316  -31.001314   10.168054 H    453 MOH     0.0372 ****
3021 C1    -11.866973  -30.277898   10.982641 C    453 MOH     0.1166 ****
3022 HC2   -12.660252  -29.550399   10.811521 H    453 MOH     0.0372 ****
3023 HC3   -10.906262  -29.764321   10.935972 H    453 MOH     0.0372 ****
3024 O1    -12.052302  -30.919664   12.276647 O    453 MOH    -0.6497 ****
3025 HO1   -12.243983  -30.244013   12.932135 H    453 MOH     0.4215 ****
3026 HC1    -5.156431  -22.286846   14.487062 H    454 MOH     0.0372 ****
3027 C1     -5.073870  -21.347058   15.032949 C    454 MOH     0.1166 ****
3028 HC2    -5.900635  -20.691411   14.760006 H    454 MOH     0.0372 ****
3029 HC3    -4.116623  -20.884921   14.788290 H    454 MOH     0.0372 ****
3030 O1     -5.114862  -21.705092   16.374330 O    454 MOH    -0.6497 ****
3031 HO1    -4.890850  -20.962080   16.938602 H    454 MOH     0.4215 ****
3032 HC1   -17.249032  -17.662617   14.230383 H    455 MOH     0.0372 ****
3033 C1    -17.914717  -16.803663   14.315235 C    455 MOH     0.1166 ****
3034 HC2   -18.956834  -17.123729   14.308164 H    455 MOH     0.0372 ****
3035 HC3   -17.779617  -16.179043   13.432766 H    455 MOH     0.0372 ****
3036 O1    -17.688973  -16.006762   15.518731 O    455 MOH    -0.6497 ****
3037 HO1   -17.761719  -16.573819   16.288770 H    455 MOH     0.4215 ****
3038 HC1   -24.925481  -25.049054    9.132850 H    456 MOH     0.0372 ****
3039 C1    -25.465881  -24.179485    8.759497 C    456 MOH     0.1166 ****
3040 HC2   -25.909286  -24.508941    7.819752 H    456 MOH     0.0372 ****
3041 HC3   -24.743039  -23.376460    8.613126 H    456 MOH     0.0372 ****
3042 O1    -26.457192  -23.841047    9.752982 O    456 MOH    -0.6497 ****
3043 HO1   -27.092854  -24.555073    9.835714 H    456 MOH     0.4215 ****
3044 HC1   -10.368749  -33.664317   10.772631 H    457 MOH     0.0372 ****
3045 C1    -11.048868  -34.233007   11.406905 C    457 MOH     0.1166 ****
3046 HC2   -10.694375  -34.195857   12.437160 H    457 MOH     0.0372 ****
3047 HC3   -11.103716  -35.269550   11.075272 H    457 MOH     0.0372 ****
3048 O1    -12.281511  -33.610020   11.324881 O    457 MOH    -0.6497 ****
3049 HO1   -12.179320  -32.717181   11.660757 H    457 MOH     0.4215 ****
3050 HC1   -20.308411  -13.408670   16.964057 H    458 MOH     0.0372 ****
3051 C1    -20.762786  -13.110649   16.019363 C    458 MOH     0.1166 ****
3052 HC2   -21.843586  -13.245371   16.067446 H    458 MOH     0.0372 ****
3053 HC3   -20.340166  -13.735269   15.231646 H    458 MOH     0.0372 ****
3054 O1    -20.481039  -11.753223   15.759854 O    458 MOH    -0.6497 ****
3055 HO1   -20.750662  -11.558897   14.859000 H    458 MOH     0.4215 ****
3056 HC1   -19.267449  -10.495002   20.087348 H    459 MOH     0.0372 ****
3057 C1    -19.609240  -11.164529   19.298217 C    459 MOH     0.1166 ****
3058 HC2   -20.107493  -12.040630   19.713996 H    459 MOH     0.0372 ****
3059 HC3   -18.736864  -11.482555   18.727582 H    459 MOH     0.0372 ****
3060 O1    -20.390395  -10.434581   18.376149 O    459 MOH    -0.6497 ****
3061 HO1   -20.363260  -10.921621   17.549542 H    459 MOH     0.4215 ****
3062 HC1   -16.500786  -27.200930   15.756319 H    460 MOH     0.0372 ****
3063 C1    -16.641082  -27.355248   14.687174 C    460 MOH     0.1166 ****
3064 HC2   -16.837382  -26.400764   14.197856 H    460 MOH     0.0372 ****
3065 HC3   -17.475354  -28.034165   14.511104 H    460 MOH     0.0372 ****
3066 O1    -15.465597  -27.909649   14.135630 O    460 MOH    -0.6497 ****
3067 HO1   -14.818965  -28.010487   14.837787 H    460 MOH     0.4215 ****
3068 HC1   -13.737588  -19.164563   17.046789 H    461 MOH     0.0372 ****
3069 C1    -13.254923  -20.130478   16.899711 C    461 MOH     0.1166 ****
3070 HC2   -14.027995  -20.884513   16.751925 H    461 MOH     0.0372 ****
3071 HC3   -12.690275  -20.372978   17.799150 H    461 MOH     0.0372 ****
3072 O1    -12.346751  -20.102717   15.776825 O    461 MOH    -0.6497 ****
3073 HO1   -11.635456  -19.498510   16.005928 H    461 MOH     0.4215 ****
3074 HC1   -19.044592  -27.407096    8.387559 H    462 MOH     0.0372 ****
3075 C1    -19.205672  -28.419960    8.755962 C    462 MOH     0.1166 ****
3076 HC2   -19.956805  -28.375052    9.543679 H    462 MOH     0.0372 ****
3077 HC3   -18.280757  -28.820451    9.171034 H    462 MOH     0.0372 ****
3078 O1    -19.657160  -29.266667    7.699544 O    462 MOH    -0.6497 ****
3079 HO1   -19.252438  -30.124805    7.849451 H    462 MOH     0.4215 ****
3080 HC1   -15.243317  -14.363155    8.174720 H    463 MOH     0.0372 ****
3081 C1    -15.824132  -13.981851    9.014763 C    463 MOH     0.1166 ****
3082 HC2   -15.526796  -12.974702    9.306798 H    463 MOH     0.0372 ****
3083 HC3   -15.616286  -14.637089    9.861170 H    463 MOH     0.0372 ****
3084 O1    -17.203422  -14.025533    8.729799 O    463 MOH    -0.6497 ****
3085 HO1   -17.608721  -14.700368    9.279221 H    463 MOH     0.4215 ****
3086 HC1   -10.445537  -27.151941   14.820110 H    464 MOH     0.0372 ****
3087 C1    -10.462280  -28.159089   14.402210 C    464 MOH     0.1166 ****
3088 HC2    -9.960562  -28.817594   15.110023 H    464 MOH     0.0372 ****
3089 HC3    -9.910910  -28.187666   13.461758 H    464 MOH     0.0372 ****
3090 O1    -11.805197  -28.594690   14.253010 O    464 MOH    -0.6497 ****
3091 HO1   -12.297099  -28.333819   15.035777 H    464 MOH     0.4215 ****
3092 HC1   -16.310838  -23.360947   13.951782 H    465 MOH     0.0372 ****
3093 C1    -17.374317  -23.160089   13.820261 C    465 MOH     0.1166 ****
3094 HC2   -17.956286  -24.081097   13.847131 H    465 MOH     0.0372 ****
3095 HC3   -17.539439  -22.689378   12.850817 H    465 MOH     0.0372 ****
3096 O1    -17.824650  -22.269699   14.799603 O    465 MOH    -0.6497 ****
3097 HO1   -17.714377  -21.375227   14.469385 H    465 MOH     0.4215 ****
3098 HC1   -12.597898  -20.433398   11.155175 H    466 MOH     0.0372 ****
3099 C1    -13.002044  -20.087612   10.204117 C    466 MOH     0.1166 ****
3100 HC2   -13.935042  -20.610986    9.991985 H    466 MOH     0.0372 ****
3101 HC3   -12.280933  -20.232540    9.400136 H    466 MOH     0.0372 ****
3102 O1    -13.248572  -18.721613   10.358266 O    466 MOH    -0.6497 ****
3103 HO1   -12.424116  -18.266008   10.546356 H    466 MOH     0.4215 ****
3104 HC1   -17.400298  -19.761422    8.691615 H    467 MOH     0.0372 ****
3105 C1    -17.637589  -20.048012    9.716920 C    467 MOH     0.1166 ****
3106 HC2   -16.875487  -20.710599   10.126335 H    467 MOH     0.0372 ****
3107 HC3   -18.590794  -20.576694    9.697828 H    467 MOH     0.0372 ****
3108 O1    -17.739203  -18.921655   10.554841 O    467 MOH    -0.6497 ****
3109 HO1   -16.965553  -18.365213   10.435340 H    467 MOH     0.4215 ****
3110 HC1   -10.358357  -18.546067    9.488525 H    468 MOH     0.0372 ****
3111 C1     -9.938046  -17.662617    9.969357 C    468 MOH     0.1166 ****
3112 HC2    -9.684589  -16.920830    9.212046 H    468 MOH     0.0372 ****
3113 HC3    -9.051236  -17.945533   10.535750 H    468 MOH     0.0372 ****
3114 O1    -10.943213  -17.166187   10.792429 O    468 MOH    -0.6497 ****
3115 HO1   -10.586987  -16.969820   11.661464 H    468 MOH     0.4215 ****
3116 HC1   -16.007152  -16.238239   22.064419 H    469 MOH     0.0372 ****
3117 C1    -16.049876  -15.364179   21.414587 C    469 MOH     0.1166 ****
3118 HC2   -15.249091  -14.664033   21.652882 H    469 MOH     0.0372 ****
3119 HC3   -16.989225  -14.848153   21.609749 H    469 MOH     0.0372 ****
3120 O1    -16.049298  -15.718539   20.023001 O    469 MOH    -0.6497 ****
3121 HO1   -15.940179  -14.926129   19.491964 H    469 MOH     0.4215 ****
3122 HC1   -21.693475  -20.507700   10.678585 H    470 MOH     0.0372 ****
3123 C1    -22.276021  -21.380534   10.974156 C    470 MOH     0.1166 ****
3124 HC2   -21.940003  -22.295419   10.486959 H    470 MOH     0.0372 ****
3125 HC3   -23.296199  -21.200497   10.636866 H    470 MOH     0.0372 ****
3126 O1    -22.282949  -21.527504   12.377056 O    470 MOH    -0.6497 ****
3127 HO1   -22.469433  -20.665692   12.758186 H    470 MOH     0.4215 ****
3128 HC1   -22.524282  -23.522205   14.949510 H    471 MOH     0.0372 ****
3129 C1    -21.492557  -23.805938   14.743742 C    471 MOH     0.1166 ****
3130 HC2   -21.221779  -24.631824   15.400644 H    471 MOH     0.0372 ****
3131 HC3   -20.844192  -22.955148   14.954460 H    471 MOH     0.0372 ****
3132 O1    -21.354570  -24.125188   13.381854 O    471 MOH    -0.6497 ****
3133 HO1   -21.651328  -23.332370   12.929306 H    471 MOH     0.4215 ****
3134 HC1   -17.030216  -24.249703    9.262957 H    472 MOH     0.0372 ****
3135 C1    -17.015783  -23.542209    8.433521 C    472 MOH     0.1166 ****
3136 HC2   -18.006516  -23.111099    8.292100 H    472 MOH     0.0372 ****
3137 HC3   -16.676878  -24.035373    7.522768 H    472 MOH     0.0372 ****
3138 O1    -16.138788  -22.490562    8.740405 O    472 MOH    -0.6497 ****
3139 HO1   -15.942489  -22.483621    9.680150 H    472 MOH     0.4215 ****
3140 HC1   -12.276314  -19.611186    6.614135 H    473 MOH     0.0372 ****
3141 C1    -11.532687  -20.132111    6.011680 C    473 MOH     0.1166 ****
3142 HC2   -10.617010  -19.542601    5.963597 H    473 MOH     0.0372 ****
3143 HC3   -11.868705  -20.253361    4.981426 H    473 MOH     0.0372 ****
3144 O1    -11.194360  -21.360939    6.595751 O    473 MOH    -0.6497 ****
3145 HO1   -11.898150  -21.632424    7.189013 H    473 MOH     0.4215 ****
3146 HC1   -11.560400  -25.288287   11.273969 H    474 MOH     0.0372 ****
3147 C1    -11.599660  -26.357898   11.068908 C    474 MOH     0.1166 ****
3148 HC2   -12.377928  -26.786150   11.700355 H    474 MOH     0.0372 ****
3149 HC3   -10.630866  -26.794315   11.312860 H    474 MOH     0.0372 ****
3150 O1    -11.888335  -26.649795    9.700657 O    474 MOH    -0.6497 ****
3151 HO1   -11.458786  -27.464250    9.428420 H    474 MOH     0.4215 ****
3152 HC1    -7.398859  -26.608154    9.027491 H    475 MOH     0.0372 ****
3153 C1     -7.921361  -25.678981    9.255179 C    475 MOH     0.1166 ****
3154 HC2    -8.953664  -25.892086    9.533779 H    475 MOH     0.0372 ****
3155 HC3    -7.880947  -25.032724    8.379074 H    475 MOH     0.0372 ****
3156 O1     -7.233737  -25.115598   10.321496 O    475 MOH    -0.6497 ****
3157 HO1    -6.771280  -25.830849   10.764145 H    475 MOH     0.4215 ****
3158 HC1   -12.525730  -24.463626    8.646360 H    476 MOH     0.0372 ****
3159 C1    -13.462769  -24.207654    8.153507 C    476 MOH     0.1166 ****
3160 HC2   -14.301082  -24.539560    8.766568 H    476 MOH     0.0372 ****
3161 HC3   -13.481244  -24.706533    7.184771 H    476 MOH     0.0372 ****
3162 O1    -13.493369  -22.824100    7.936425 O    476 MOH    -0.6497 ****
3163 HO1   -14.409624  -22.582826    7.784397 H    476 MOH     0.4215 ****
3164 HC1   -15.855309  -29.173586    6.938697 H    477 MOH     0.0372 ****
3165 C1    -15.549890  -30.153790    6.571709 C    477 MOH     0.1166 ****
3166 HC2   -14.600726  -30.074182    6.042086 H    477 MOH     0.0372 ****
3167 HC3   -16.316611  -30.546117    5.904907 H    477 MOH     0.0372 ****
3168 O1    -15.396315  -31.074390    7.645804 O    477 MOH    -0.6497 ****
3169 HO1   -14.547033  -31.508358    7.537617 H    477 MOH     0.4215 ****
3170 HC1   -10.014256  -31.821893   13.611664 H    478 MOH     0.0372 ****
3171 C1     -9.143034  -31.318523   13.192350 C    478 MOH     0.1166 ****
3172 HC2    -9.440947  -30.369345   12.748994 H    478 MOH     0.0372 ****
3173 HC3    -8.704248  -31.930079   12.403219 H    478 MOH     0.0372 ****
3174 O1     -8.174241  -31.043363   14.178057 O    478 MOH    -0.6497 ****
3175 HO1    -7.744115  -31.881497   14.361197 H    478 MOH     0.4215 ****
3176 HC1   -26.728546  -17.929612   16.312105 H    479 MOH     0.0372 ****
3177 C1    -25.865985  -17.466658   15.832686 C    479 MOH     0.1166 ****
3178 HC2   -25.079057  -17.351940   16.578684 H    479 MOH     0.0372 ****
3179 HC3   -26.182950  -16.474615   15.510246 H    479 MOH     0.0372 ****
3180 O1    -25.483202  -18.254169   14.673738 O    479 MOH    -0.6497 ****
3181 HO1   -26.177177  -18.208037   14.012594 H    479 MOH     0.4215 ****
3182 HC1   -18.569432  -25.498127    1.863792 H    480 MOH     0.0372 ****
3183 C1    -17.645672  -25.309924    1.315784 C    480 MOH     0.1166 ****
3184 HC2   -17.055042  -26.224809    1.353261 H    480 MOH     0.0372 ****
3185 HC3   -17.123170  -24.486488    1.802981 H    480 MOH     0.0372 ****
3186 O1    -17.918758  -24.957606   -0.038325 O    480 MOH    -0.6497 ****
3187 HO1   -17.137026  -24.535477   -0.401778 H    480 MOH     0.4215 ****
3188 HC1   -14.461585  -16.242321   11.884909 H    481 MOH     0.0372 ****
3189 C1    -15.476567  -16.625667   11.780965 C    481 MOH     0.1166 ****
3190 HC2   -16.197677  -15.808354   11.802178 H    481 MOH     0.0372 ****
3191 HC3   -15.711548  -17.320505   12.587066 H    481 MOH     0.0372 ****
3192 O1    -15.604161  -17.337652   10.598682 O    481 MOH    -0.6497 ****
3193 HO1   -14.883628  -17.970845   10.566862 H    481 MOH     0.4215 ****
3194 HC1   -14.928084  -30.576327   11.957741 H    482 MOH     0.0372 ****
3195 C1    -15.426337  -31.351999   11.377914 C    482 MOH     0.1166 ****
3196 HC2   -14.699453  -32.097460   11.055473 H    482 MOH     0.0372 ****
3197 HC3   -15.888795  -30.878023   10.511708 H    482 MOH     0.0372 ****
3198 O1    -16.401482  -31.982743   12.174823 O    482 MOH    -0.6497 ****
3199 HO1   -15.929787  -32.351799   12.924356 H    482 MOH     0.4215 ****
3200 HC1   -15.603584  -18.877564    7.664189 H    483 MOH     0.0372 ****
3201 C1    -15.010645  -19.216002    6.814954 C    483 MOH     0.1166 ****
3202 HC2   -14.643450  -20.211720    7.063148 H    483 MOH     0.0372 ****
3203 HC3   -14.163672  -18.546067    6.662926 H    483 MOH     0.0372 ****
3204 O1    -15.814894  -19.267033    5.644692 O    483 MOH    -0.6497 ****
3205 HO1   -15.407862  -19.917373    5.066986 H    483 MOH     0.4215 ****
3206 HC1   -19.847108  -18.556681   13.326700 H    484 MOH     0.0372 ****
3207 C1    -19.665820  -19.594856   13.606007 C    484 MOH     0.1166 ****
3208 HC2   -20.325154  -20.232132   13.016987 H    484 MOH     0.0372 ****
3209 HC3   -19.890410  -19.749583   14.661718 H    484 MOH     0.0372 ****
3210 O1    -18.335605  -19.990449   13.364884 O    484 MOH    -0.6497 ****
3211 HO1   -18.156050  -19.882263   12.427967 H    484 MOH     0.4215 ****
3212 HC1   -15.958654  -24.344825   16.985271 H    485 MOH     0.0372 ****
3213 C1    -15.504857  -23.465458   17.442062 C    485 MOH     0.1166 ****
3214 HC2   -14.667699  -23.148658   16.819808 H    485 MOH     0.0372 ****
3215 HC3   -15.201171  -23.714490   18.458881 H    485 MOH     0.0372 ****
3216 O1    -16.455176  -22.467700   17.406706 O    485 MOH    -0.6497 ****
3217 HO1   -16.783111  -22.412178   16.505852 H    485 MOH     0.4215 ****
3218 HC1   -24.125851  -12.872232   14.656061 H    486 MOH     0.0372 ****
3219 C1    -25.033446  -12.935919   15.255687 C    486 MOH     0.1166 ****
3220 HC2   -25.644283  -13.782625   14.943146 H    486 MOH     0.0372 ****
3221 HC3   -25.582506  -12.003888   15.123458 H    486 MOH     0.0372 ****
3222 O1    -24.661632  -13.119222   16.580098 O    486 MOH    -0.6497 ****
3223 HO1   -24.134512  -13.921838   16.578684 H    486 MOH     0.4215 ****
3224 HC1   -16.589121  -26.943734    9.632774 H    487 MOH     0.0372 ****
3225 C1    -15.661896  -27.120505   10.176539 C    487 MOH     0.1166 ****
3226 HC2   -15.727714  -28.045188   10.750003 H    487 MOH     0.0372 ****
3227 HC3   -15.438462  -26.284005   10.839098 H    487 MOH     0.0372 ****
3228 O1    -14.658462  -27.222567    9.245987 O    487 MOH    -0.6497 ****
3229 HO1   -13.848439  -26.881680    9.632774 H    487 MOH     0.4215 ****
3230 HC1   -18.686057  -26.799622    4.359879 H    488 MOH     0.0372 ****
3231 C1    -18.406042  -27.707975    4.893745 C    488 MOH     0.1166 ****
3232 HC2   -17.597752  -28.203588    4.356343 H    488 MOH     0.0372 ****
3233 HC3   -19.236849  -28.413836    4.917079 H    488 MOH     0.0372 ****
3234 O1    -17.968411  -27.446696    6.213206 O    488 MOH    -0.6497 ****
3235 HO1   -18.315975  -28.151332    6.764749 H    488 MOH     0.4215 ****
3236 HC1    -7.502205  -27.327487   17.763088 H    489 MOH     0.0372 ****
3237 C1     -8.333589  -26.644080   17.593383 C    489 MOH     0.1166 ****
3238 HC2    -9.255618  -27.104175   17.950471 H    489 MOH     0.0372 ****
3239 HC3    -8.404026  -26.455877   16.522116 H    489 MOH     0.0372 ****
3240 O1     -8.005654  -25.423417   18.245335 O    489 MOH    -0.6497 ****
3241 HO1    -7.392508  -25.620601   18.957391 H    489 MOH     0.4215 ****
3242 HC1    -7.742383  -24.501184   13.785612 H    490 MOH     0.0372 ****
3243 C1     -8.752168  -24.822068   13.529640 C    490 MOH     0.1166 ****
3244 HC2    -9.449607  -24.391366   14.248767 H    490 MOH     0.0372 ****
3245 HC3    -8.833575  -25.908416   13.564288 H    490 MOH     0.0372 ****
3246 O1     -9.107239  -24.362788   12.257555 O    490 MOH    -0.6497 ****
3247 HO1    -8.508526  -24.770220   11.628230 H    490 MOH     0.4215 ****
3248 HC1   -11.939142  -17.392765   15.059819 H    491 MOH     0.0372 ****
3249 C1    -12.431622  -16.956348   14.190785 C    491 MOH     0.1166 ****
3250 HC2   -13.373857  -16.468899   14.441100 H    491 MOH     0.0372 ****
3251 HC3   -12.683924  -17.790807   13.536004 H    491 MOH     0.0372 ****
3252 O1    -11.593886  -16.031257   13.490749 O    491 MOH    -0.6497 ****
3253 HO1   -12.134864  -15.331520   13.118811 H    491 MOH     0.4215 ****
3254 HC1    -5.598104  -28.792690   12.720710 H    492 MOH     0.0372 ****
3255 C1     -6.503966  -28.468133   12.209471 C    492 MOH     0.1166 ****
3256 HC2    -7.389622  -28.860868   12.708689 H    492 MOH     0.0372 ****
3257 HC3    -6.496461  -28.816369   11.176388 H    492 MOH     0.0372 ****
3258 O1     -6.596920  -27.076006   12.223614 O    492 MOH    -0.6497 ****
3259 HO1    -6.326720  -26.790641   13.099719 H    492 MOH     0.4215 ****
3260 HC1   -13.063820  -24.228883   14.705558 H    493 MOH     0.0372 ****
3261 C1    -12.400445  -25.050687   14.974966 C    493 MOH     0.1166 ****
3262 HC2   -11.384308  -24.664484   15.052748 H    493 MOH     0.0372 ****
3263 HC3   -12.414301  -25.833299   14.216240 H    493 MOH     0.0372 ****
3264 O1    -12.778609  -25.477714   16.261900 O    493 MOH    -0.6497 ****
3265 HO1   -12.724916  -24.708574   16.833243 H    493 MOH     0.4215 ****
3266 HC1    -9.283908  -18.029632   18.808899 H    494 MOH     0.0372 ****
3267 C1     -9.623390  -18.775502   18.089771 C    494 MOH     0.1166 ****
3268 HC2   -10.129726  -19.612819   18.571311 H    494 MOH     0.0372 ****
3269 HC3    -8.736580  -19.172319   17.594797 H    494 MOH     0.0372 ****
3270 O1    -10.464589  -18.154965   17.135177 O    494 MOH    -0.6497 ****
3271 HO1    -9.935159  -17.469924   16.719398 H    494 MOH     0.4215 ****
3272 HC1   -18.577515  -25.265833    9.827936 H    495 MOH     0.0372 ****
3273 C1    -19.207982  -25.579368   10.659493 C    495 MOH     0.1166 ****
3274 HC2   -20.184281  -25.892086   10.288969 H    495 MOH     0.0372 ****
3275 HC3   -19.378300  -24.752257   11.349630 H    495 MOH     0.0372 ****
3276 O1    -18.605805  -26.633465   11.355286 O    495 MOH    -0.6497 ****
3277 HO1   -19.256479  -26.987825   11.964812 H    495 MOH     0.4215 ****
3278 HC1   -15.915353  -20.533419   12.971732 H    496 MOH     0.0372 ****
3279 C1    -15.258906  -20.257852   13.796926 C    496 MOH     0.1166 ****
3280 HC2   -15.805657  -20.293777   14.740207 H    496 MOH     0.0372 ****
3281 HC3   -14.912496  -19.235190   13.646312 H    496 MOH     0.0372 ****
3282 O1    -14.140001  -21.129870   13.861980 O    496 MOH    -0.6497 ****
3283 HO1   -13.534938  -20.803271   14.532317 H    496 MOH     0.4215 ****
3284 HC1   -12.138905  -15.818560   20.739300 H    497 MOH     0.0372 ****
3285 C1    -12.450674  -16.237422   21.696723 C    497 MOH     0.1166 ****
3286 HC2   -12.977795  -15.491145   22.289279 H    497 MOH     0.0372 ****
3287 HC3   -11.558091  -16.570961   22.224932 H    497 MOH     0.0372 ****
3288 O1    -13.265315  -17.351532   21.469742 O    497 MOH    -0.6497 ****
3289 HO1   -13.951208  -17.110257   20.843952 H    497 MOH     0.4215 ****
3290 HC1   -19.459129  -10.424375   13.019816 H    498 MOH     0.0372 ****
3291 C1    -20.366724  -10.044704   12.550297 C    498 MOH     0.1166 ****
3292 HC2   -20.236243  -10.064708   11.467716 H    498 MOH     0.0372 ****
3293 HC3   -20.509907   -9.013877   12.872030 H    498 MOH     0.0372 ****
3294 O1    -21.506990  -10.837931   12.924356 O    498 MOH    -0.6497 ****
3295 HO1   -22.280062  -10.332927   12.662020 H    498 MOH     0.4215 ****
3296 HC1   -17.301571  -18.894302   19.531562 H    499 MOH     0.0372 ****
3297 C1    -16.719602  -18.651803   18.642022 C    499 MOH     0.1166 ****
3298 HC2   -16.755975  -19.473607   17.927137 H    499 MOH     0.0372 ****
3299 HC3   -15.692496  -18.508508   18.979312 H    499 MOH     0.0372 ****
3300 O1    -17.185524  -17.407462   18.110277 O    499 MOH    -0.6497 ****
3301 HO1   -16.769832  -16.730178   18.648386 H    499 MOH     0.4215 ****
3302 HC1   -20.084977  -23.565479    7.867129 H    500 MOH     0.0372 ****
3303 C1    -20.218345  -24.588141    7.514282 C    500 MOH     0.1166 ****
3304 HC2   -21.217161  -24.665708    7.085776 H    500 MOH     0.0372 ****
3305 HC3   -20.145021  -25.305025    8.331698 H    500 MOH     0.0372 ****
3306 O1    -19.298048  -24.865342    6.502413 O    500 MOH    -0.6497 ****
3307 HO1   -19.182001  -25.813294    6.410489 H    500 MOH     0.4215 ****
3308 HC1   -16.949387  -16.284779    7.176992 H    501 MOH     0.0372 ****
3309 C1    -17.796938  -16.949408    7.346698 C    501 MOH     0.1166 ****
3310 HC2   -18.662386  -16.305600    7.502969 H    501 MOH     0.0372 ****
3311 HC3   -17.564265  -17.551165    8.224925 H    501 MOH     0.0372 ****
3312 O1    -17.930305  -17.651186    6.131181 O    501 MOH    -0.6497 ****
3313 HO1   -17.084487  -18.056985    5.926120 H    501 MOH     0.4215 ****
3314 HC1    -5.998208  -29.898635   17.157805 H    502 MOH     0.0372 ****
3315 C1     -5.614270  -29.301776   16.330490 C    502 MOH     0.1166 ****
3316 HC2    -4.926645  -29.919047   15.752076 H    502 MOH     0.0372 ****
3317 HC3    -5.113130  -28.439964   16.772432 H    502 MOH     0.0372 ****
3318 O1     -6.679481  -28.862093   15.543480 O    502 MOH    -0.6497 ****
3319 HO1    -7.208911  -29.618168   15.281850 H    502 MOH     0.4215 ****
3320 HC1   -27.583025  -21.594865   13.275788 H    503 MOH     0.0372 ****
3321 C1    -27.749302  -20.524438   13.394582 C    503 MOH     0.1166 ****
3322 HC2   -27.395963  -20.203555   14.374632 H    503 MOH     0.0372 ****
3323 HC3   -28.816245  -20.311332   13.322457 H    503 MOH     0.0372 ****
3324 O1    -27.062255  -19.810003   12.384834 O    503 MOH    -0.6497 ****
3325 HO1   -27.152899  -20.339910   11.590046 H    503 MOH     0.4215 ****
3326 HC1   -20.919825  -15.278856   10.426855 H    504 MOH     0.0372 ****
3327 C1    -20.048604  -15.934094   10.407763 C    504 MOH     0.1166 ****
3328 HC2   -20.049181  -16.505642    9.480039 H    504 MOH     0.0372 ****
3329 HC3   -20.076316  -16.643221   11.235785 H    504 MOH     0.0372 ****
3330 O1    -18.870232  -15.149441   10.481302 O    504 MOH    -0.6497 ****
3331 HO1   -18.899677  -14.638722   11.293768 H    504 MOH     0.4215 ****
3332 HC1    -6.106172  -24.441988   15.893498 H    505 MOH     0.0372 ****
3333 C1     -5.465891  -25.317273   16.002392 C    505 MOH     0.1166 ****
3334 HC2    -5.616002  -25.718172   17.005070 H    505 MOH     0.0372 ****
3335 HC3    -4.427237  -25.004554   15.896326 H    505 MOH     0.0372 ****
3336 O1     -5.845210  -26.259101   14.999008 O    505 MOH    -0.6497 ****
3337 HO1    -5.916224  -27.132345   15.391452 H    505 MOH     0.4215 ****
3338 HC1    -7.970436  -22.228466   20.314329 H    506 MOH     0.0372 ****
3339 C1     -7.111916  -21.866758   19.748644 C    506 MOH     0.1166 ****
3340 HC2    -7.460058  -21.347466   18.856275 H    506 MOH     0.0372 ****
3341 HC3    -6.482604  -22.707341   19.455195 H    506 MOH     0.0372 ****
3342 O1     -6.362516  -20.977185   20.544139 O    506 MOH    -0.6497 ****
3343 HO1    -6.195084  -21.395640   21.391960 H    506 MOH     0.4215 ****
3344 HC1    -7.171383  -20.907375   10.382308 H    507 MOH     0.0372 ****
3345 C1     -7.618252  -20.493411    9.478625 C    507 MOH     0.1166 ****
3346 HC2    -8.645936  -20.174569    9.650452 H    507 MOH     0.0372 ****
3347 HC3    -7.587653  -21.265817    8.709293 H    507 MOH     0.0372 ****
3348 O1     -6.807653  -19.429108    9.090423 O    507 MOH    -0.6497 ****
3349 HO1    -6.625787  -18.882871    9.858341 H    507 MOH     0.4215 ****
3350 HC1   -13.945434  -23.159681    4.976476 H    508 MOH     0.0372 ****
3351 C1    -14.869772  -22.644471    4.714847 C    508 MOH     0.1166 ****
3352 HC2   -15.582799  -22.691420    5.538626 H    508 MOH     0.0372 ****
3353 HC3   -15.305671  -23.090687    3.821771 H    508 MOH     0.0372 ****
3354 O1    -14.631903  -21.295211    4.435539 O    508 MOH    -0.6497 ****
3355 HO1   -14.127299  -21.265000    3.619538 H    508 MOH     0.4215 ****
3356 HC1   -22.223482  -15.966346   15.028706 H    509 MOH     0.0372 ****
3357 C1    -22.594141  -16.363163   15.973401 C    509 MOH     0.1166 ****
3358 HC2   -21.739663  -16.486046   16.638788 H    509 MOH     0.0372 ****
3359 HC3   -23.065836  -17.338876   15.857435 H    509 MOH     0.0372 ****
3360 O1    -23.449197  -15.427866   16.535551 O    509 MOH    -0.6497 ****
3361 HO1   -23.264445  -15.426233   17.477417 H    509 MOH     0.4215 ****
3362 HC1   -22.225792  -14.552582   11.953499 H    510 MOH     0.0372 ****
3363 C1    -21.659411  -14.247620   12.833847 C    510 MOH     0.1166 ****
3364 HC2   -21.273741  -15.141276   13.325286 H    510 MOH     0.0372 ****
3365 HC3   -22.313549  -13.723838   13.530347 H    510 MOH     0.0372 ****
3366 O1    -20.564755  -13.433165   12.428674 O    510 MOH    -0.6497 ****
3367 HO1   -20.915784  -12.557881   12.251898 H    510 MOH     0.4215 ****
3368 HC1   -14.991015  -16.425217   17.161340 H    511 MOH     0.0372 ****
3369 C1    -14.045316  -16.082288   17.581362 C    511 MOH     0.1166 ****
3370 HC2   -14.159054  -15.107799   18.057244 H    511 MOH     0.0372 ****
3371 HC3   -13.315545  -15.968795   16.779502 H    511 MOH     0.0372 ****
3372 O1    -13.603643  -17.004521   18.553633 O    511 MOH    -0.6497 ****
3373 HO1   -12.772258  -17.392765   18.271498 H    511 MOH     0.4215 ****
3374 HC1   -15.072999  -24.490978   12.232099 H    512 MOH     0.0372 ****
3375 C1    -14.291267  -23.817777   11.880667 C    512 MOH     0.1166 ****
3376 HC2   -13.731814  -24.252561   11.052645 H    512 MOH     0.0372 ****
3377 HC3   -13.605952  -23.612836   12.702325 H    512 MOH     0.0372 ****
3378 O1    -14.865153  -22.618343   11.435189 O    512 MOH    -0.6497 ****
3379 HO1   -14.670009  -21.974944   12.121083 H    512 MOH     0.4215 ****
3380 HC1   -15.674714  -12.291050   16.594948 H    513 MOH     0.0372 ****
3381 C1    -16.475498  -12.685009   17.220737 C    513 MOH     0.1166 ****
3382 HC2   -17.041302  -13.415365   16.641617 H    513 MOH     0.0372 ****
3383 HC3   -17.148111  -11.908113   17.582069 H    513 MOH     0.0372 ****
3384 O1    -15.978400  -13.425980   18.265134 O    513 MOH    -0.6497 ****
3385 HO1   -15.433959  -12.829937   18.784150 H    513 MOH     0.4215 ****
3386 HC1    -3.565369  -11.052016   21.101339 H    514 MOH     0.0372 ****
3387 C1     -3.504170  -10.272262   21.859358 C    514 MOH     0.1166 ****
3388 HC2    -3.143903  -10.718069   22.787082 H    514 MOH     0.0372 ****
3389 HC3    -4.497212   -9.846867   22.005022 H    514 MOH     0.0372 ****
3390 O1     -2.632948   -9.249600   21.431558 O    514 MOH    -0.6497 ****
3391 HO1    -1.746138   -9.609675   21.365090 H    514 MOH     0.4215 ****
3392 HC1     2.693108   -6.302864   15.320741 H    515 MOH     0.0372 ****
3393 C1      3.126698   -6.109762   16.301498 C    515 MOH     0.1166 ****
3394 HC2     3.412486   -5.058931   16.352410 H    515 MOH     0.0372 ****
3395 HC3     4.014663   -6.729075   16.428071 H    515 MOH     0.0372 ****
3396 O1      2.172338   -6.424522   17.309126 O    515 MOH    -0.6497 ****
3397 HO1     2.373256   -7.316136   17.601868 H    515 MOH     0.4215 ****
3398 HC1    -3.944111  -17.156553    7.688231 H    516 MOH     0.0372 ****
3399 C1     -4.131172  -18.142472    8.113202 C    516 MOH     0.1166 ****
3400 HC2    -4.523193  -18.047759    9.125779 H    516 MOH     0.0372 ****
3401 HC3    -3.173925  -18.658906    8.181791 H    516 MOH     0.0372 ****
3402 O1     -4.972372  -18.946313    7.263967 O    516 MOH    -0.6497 ****
3403 HO1    -5.688286  -19.292508    7.801368 H    516 MOH     0.4215 ****
3404 HC1    -1.313703  -16.684618   14.325135 H    517 MOH     0.0372 ****
3405 C1     -2.162408  -16.249833   14.853344 C    517 MOH     0.1166 ****
3406 HC2    -2.298662  -15.222681   14.515347 H    517 MOH     0.0372 ****
3407 HC3    -1.997863  -16.262081   15.930974 H    517 MOH     0.0372 ****
3408 O1     -3.328078  -16.947938   14.519589 O    517 MOH    -0.6497 ****
3409 HO1    -3.300943  -17.748513   15.049212 H    517 MOH     0.4215 ****
3410 HC1     6.762850   -7.914220   10.705455 H    518 MOH     0.0372 ****
3411 C1      6.568283   -7.172841   11.480444 C    518 MOH     0.1166 ****
3412 HC2     5.504226   -7.130791   11.713083 H    518 MOH     0.0372 ****
3413 HC3     6.869660   -6.184472   11.133255 H    518 MOH     0.0372 ****
3414 O1      7.238009   -7.503114   12.691718 O    518 MOH    -0.6497 ****
3415 HO1     7.020348   -8.397586   12.963954 H    518 MOH     0.4215 ****
3416 HC1    -1.723044   -1.717827    3.591961 H    519 MOH     0.0372 ****
3417 C1     -1.185531   -1.375307    2.707370 C    519 MOH     0.1166 ****
3418 HC2    -1.513466   -1.949304    1.840458 H    519 MOH     0.0372 ****
3419 HC3    -0.126093   -1.559835    2.885561 H    519 MOH     0.0372 ****
3420 O1     -1.445916    0.005389    2.438670 O    519 MOH    -0.6497 ****
3421 HO1    -1.186686    0.210330    1.537816 H    519 MOH     0.4215 ****
3422 HC1   -11.061685   -8.522918   21.557423 H    520 MOH     0.0372 ****
3423 C1    -12.081863   -8.815632   21.805617 C    520 MOH     0.1166 ****
3424 HC2   -12.242944   -8.758069   22.881127 H    520 MOH     0.0372 ****
3425 HC3   -12.290286   -9.837886   21.488834 H    520 MOH     0.0372 ****
3426 O1    -12.968096   -7.923201   21.204577 O    520 MOH    -0.6497 ****
3427 HO1   -12.516608   -7.546796   20.445144 H    520 MOH     0.4215 ****
3428 HC1     1.645795   -3.550045   12.234220 H    521 MOH     0.0372 ****
3429 C1      1.694292   -4.637619   12.183308 C    521 MOH     0.1166 ****
3430 HC2     1.316128   -4.992387   11.225179 H    521 MOH     0.0372 ****
3431 HC3     1.087497   -5.084242   12.971025 H    521 MOH     0.0372 ****
3432 O1      3.030858   -5.071995   12.256848 O    521 MOH    -0.6497 ****
3433 HO1     2.998526   -6.031379   12.278061 H    521 MOH     0.4215 ****
3434 HC1   -16.462797   -5.736215   17.761674 H    522 MOH     0.0372 ****
3435 C1    -15.422411   -5.708862   17.435697 C    522 MOH     0.1166 ****
3436 HC2   -14.838133   -6.348587   18.098257 H    522 MOH     0.0372 ****
3437 HC3   -15.081197   -4.675178   17.489438 H    522 MOH     0.0372 ****
3438 O1    -15.355439   -6.191004   16.112701 O    522 MOH    -0.6497 ****
3439 HO1   -15.950110   -6.943813   16.068860 H    522 MOH     0.4215 ****
3440 HC1   -13.582396  -10.418415   13.601765 H    523 MOH     0.0372 ****
3441 C1    -12.667873  -10.112228   13.094062 C    523 MOH     0.1166 ****
3442 HC2   -12.072625   -9.457806   13.731165 H    523 MOH     0.0372 ****
3443 HC3   -12.943269   -9.565992   12.191794 H    523 MOH     0.0372 ****
3444 O1    -11.965815  -11.251649   12.695961 O    523 MOH    -0.6497 ****
3445 HO1   -11.031085  -11.052832   12.785763 H    523 MOH     0.4215 ****
3446 HC1   -16.636579  -10.756036    8.746062 H    524 MOH     0.0372 ****
3447 C1    -16.593855  -10.514353    9.808137 C    524 MOH     0.1166 ****
3448 HC2   -15.556934  -10.576407   10.139063 H    524 MOH     0.0372 ****
3449 HC3   -17.191413  -11.216132   10.390086 H    524 MOH     0.0372 ****
3450 O1    -17.027445   -9.220614   10.077544 O    524 MOH    -0.6497 ****
3451 HO1   -17.797053   -9.029146    9.536608 H    524 MOH     0.4215 ****
3452 HC1   -19.239851   -6.818481   16.461304 H    525 MOH     0.0372 ****
3453 C1    -19.674596   -7.703972   16.924459 C    525 MOH     0.1166 ****
3454 HC2   -20.086824   -8.378806   16.174219 H    525 MOH     0.0372 ****
3455 HC3   -20.496743   -7.417790   17.581361 H    525 MOH     0.0372 ****
3456 O1    -18.769311   -8.406567   17.719954 O    525 MOH    -0.6497 ****
3457 HO1   -19.295854   -9.124268   18.080579 H    525 MOH     0.4215 ****
3458 HC1     6.441843   -5.884409   14.487062 H    526 MOH     0.0372 ****
3459 C1      6.524404   -4.944622   15.032949 C    526 MOH     0.1166 ****
3460 HC2     5.697639   -4.288975   14.760006 H    526 MOH     0.0372 ****
3461 HC3     7.481651   -4.482484   14.788290 H    526 MOH     0.0372 ****
3462 O1      6.483412   -5.302655   16.374330 O    526 MOH    -0.6497 ****
3463 HO1     6.707424   -4.559643   16.938602 H    526 MOH     0.4215 ****
3464 HC1    -5.576280  -11.914236   23.180233 H    527 MOH     0.0372 ****
3465 C1     -5.276635  -12.961393   23.165384 C    527 MOH     0.1166 ****
3466 HC2    -4.642705  -13.150004   22.298471 H    527 MOH     0.0372 ****
3467 HC3    -6.144393  -13.615407   23.086188 H    527 MOH     0.0372 ****
3468 O1     -4.571691  -13.272478   24.358980 O    527 MOH    -0.6497 ****
3469 HO1    -4.137523  -14.120818   24.240186 H    527 MOH     0.4215 ****
3470 HC1   -14.883744  -15.418640    4.823741 H    528 MOH     0.0372 ****
3471 C1    -14.470938  -14.411083    4.786971 C    528 MOH     0.1166 ****
3472 HC2   -14.556386  -13.940373    5.766314 H    528 MOH     0.0372 ****
3473 HC3   -15.047711  -13.823205    4.072794 H    528 MOH     0.0372 ****
3474 O1    -13.131486  -14.466605    4.355636 O    528 MOH    -0.6497 ****
3475 HO1   -13.097999  -15.127150    3.659843 H    528 MOH     0.4215 ****
3476 HC1    -8.710137    2.993766   16.964057 H    529 MOH     0.0372 ****
3477 C1     -9.164512    3.291788   16.019363 C    529 MOH     0.1166 ****
3478 HC2   -10.245312    3.157066   16.067446 H    529 MOH     0.0372 ****
3479 HC3    -8.741892    2.667168   15.231646 H    529 MOH     0.0372 ****
3480 O1     -8.882765    4.649213   15.759854 O    529 MOH    -0.6497 ****
3481 HO1    -9.152388    4.843539   14.859000 H    529 MOH     0.4215 ****
3482 HC1    -7.669175    5.907435   20.087348 H    530 MOH     0.0372 ****
3483 C1     -8.010966    5.237907   19.298217 C    530 MOH     0.1166 ****
3484 HC2    -8.509219    4.361807   19.713996 H    530 MOH     0.0372 ****
3485 HC3    -7.138590    4.919882   18.727582 H    530 MOH     0.0372 ****
3486 O1     -8.792121    5.967855   18.376149 O    530 MOH    -0.6497 ****
3487 HO1    -8.764986    5.480815   17.549542 H    530 MOH     0.4215 ****
3488 HC1    -4.902512  -10.798494   15.756319 H    531 MOH     0.0372 ****
3489 C1     -5.042808  -10.952812   14.687174 C    531 MOH     0.1166 ****
3490 HC2    -5.239107   -9.998327   14.197856 H    531 MOH     0.0372 ****
3491 HC3    -5.877079  -11.631729   14.511104 H    531 MOH     0.0372 ****
3492 O1     -3.867323  -11.507213   14.135630 O    531 MOH    -0.6497 ****
3493 HO1    -3.220691  -11.608050   14.837787 H    531 MOH     0.4215 ****
3494 HC1     1.559192  -16.887517   16.001685 H    532 MOH     0.0372 ****
3495 C1      1.392915  -16.800560   17.075780 C    532 MOH     0.1166 ****
3496 HC2     1.465084  -15.744422   17.335289 H    532 MOH     0.0372 ****
3497 HC3     2.179844  -17.354553   17.588433 H    532 MOH     0.0372 ****
3498 O1      0.067319  -17.319444   17.309833 O    532 MOH    -0.6497 ****
3499 HO1    -0.243873  -16.970800   18.148461 H    532 MOH     0.4215 ****
3500 HC1    -3.645043    2.039282    8.174720 H    533 MOH     0.0372 ****
3501 C1     -4.225858    2.420586    9.014763 C    533 MOH     0.1166 ****
3502 HC2    -3.928522    3.427734    9.306798 H    533 MOH     0.0372 ****
3503 HC3    -4.018012    1.765347    9.861170 H    533 MOH     0.0372 ****
3504 O1     -5.605147    2.376903    8.729799 O    533 MOH    -0.6497 ****
3505 HO1    -6.010447    1.702069    9.279221 H    533 MOH     0.4215 ****
3506 HC1   -15.067341   -8.317569   19.200636 H    534 MOH     0.0372 ****
3507 C1    -15.458785   -9.086709   18.535956 C    534 MOH     0.1166 ****
3508 HC2   -14.959377   -9.052824   17.567926 H    534 MOH     0.0372 ****
3509 HC3   -16.530347   -8.924226   18.411505 H    534 MOH     0.0372 ****
3510 O1    -15.317911  -10.353503   19.120733 O    534 MOH    -0.6497 ****
3511 HO1   -15.764203  -10.353911   19.969968 H    534 MOH     0.4215 ****
3512 HC1     1.152737  -10.749504   14.820110 H    535 MOH     0.0372 ****
3513 C1      1.135994  -11.756653   14.402210 C    535 MOH     0.1166 ****
3514 HC2     1.637712  -12.415157   15.110023 H    535 MOH     0.0372 ****
3515 HC3     1.687364  -11.785230   13.461758 H    535 MOH     0.0372 ****
3516 O1     -0.206922  -12.192253   14.253010 O    535 MOH    -0.6497 ****
3517 HO1    -0.698825  -11.931383   15.035777 H    535 MOH     0.4215 ****
3518 HC1    -4.712564   -6.958510   13.951782 H    536 MOH     0.0372 ****
3519 C1     -5.776043   -6.757652   13.820261 C    536 MOH     0.1166 ****
3520 HC2    -6.358012   -7.678660   13.847131 H    536 MOH     0.0372 ****
3521 HC3    -5.941165   -6.286942   12.850817 H    536 MOH     0.0372 ****
3522 O1     -6.226376   -5.867263   14.799603 O    536 MOH    -0.6497 ****
3523 HO1    -6.116102   -4.972791   14.469385 H    536 MOH     0.4215 ****
3524 HC1    -0.999624   -4.030962   11.155175 H    537 MOH     0.0372 ****
3525 C1     -1.403770   -3.685176   10.204117 C    537 MOH     0.1166 ****
3526 HC2    -2.336768   -4.208550    9.991985 H    537 MOH     0.0372 ****
3527 HC3    -0.682659   -3.830104    9.400136 H    537 MOH     0.0372 ****
3528 O1     -1.650298   -2.319177   10.358266 O    537 MOH    -0.6497 ****
3529 HO1    -0.825842   -1.863572   10.546356 H    537 MOH     0.4215 ****
3530 HC1    -5.232179  -15.286775   16.358774 H    538 MOH     0.0372 ****
3531 C1     -5.418086  -14.700939   15.458627 C    538 MOH     0.1166 ****
3532 HC2    -5.400188  -15.324743   14.564844 H    538 MOH     0.0372 ****
3533 HC3    -4.670417  -13.915469   15.349733 H    538 MOH     0.0372 ****
3534 O1     -6.660544  -14.112653   15.588028 O    538 MOH    -0.6497 ****
3535 HO1    -6.959034  -14.002018   14.682224 H    538 MOH     0.4215 ****
3536 HC1    -4.047456  -11.711745   17.777937 H    539 MOH     0.0372 ****
3537 C1     -3.293437  -12.465372   17.550249 C    539 MOH     0.1166 ****
3538 HC2    -3.779566  -13.354945   17.150734 H    539 MOH     0.0372 ****
3539 HC3    -2.804421  -12.754820   18.480094 H    539 MOH     0.0372 ****
3540 O1     -2.359284  -11.923218   16.605554 O    539 MOH    -0.6497 ****
3541 HO1    -2.142778  -11.025480   16.865062 H    539 MOH     0.4215 ****
3542 HC1    -8.110848  -18.341289   15.043555 H    540 MOH     0.0372 ****
3543 C1     -8.517880  -17.340673   14.898598 C    540 MOH     0.1166 ****
3544 HC2    -9.563461  -17.386396   14.593128 H    540 MOH     0.0372 ****
3545 HC3    -7.961314  -16.883026   14.081890 H    540 MOH     0.0372 ****
3546 O1     -8.363150  -16.516828   16.055425 O    540 MOH    -0.6497 ****
3547 HO1    -8.080248  -15.636644   15.795210 H    540 MOH     0.4215 ****
3548 HC1    -8.704941  -13.935882   17.265992 H    541 MOH     0.0372 ****
3549 C1     -8.616607  -12.949962   17.722076 C    541 MOH     0.1166 ****
3550 HC2    -9.217628  -12.918119   18.630001 H    541 MOH     0.0372 ****
3551 HC3    -8.968790  -12.214707   16.998706 H    541 MOH     0.0372 ****
3552 O1     -7.276577  -12.746246   18.029667 O    541 MOH    -0.6497 ****
3553 HO1    -6.791602  -13.212874   17.345895 H    541 MOH     0.4215 ****
3554 HC1     1.239917   -2.143630    9.488525 H    542 MOH     0.0372 ****
3555 C1      1.660228   -1.260181    9.969357 C    542 MOH     0.1166 ****
3556 HC2     1.913685   -0.518394    9.212046 H    542 MOH     0.0372 ****
3557 HC3     2.547038   -1.543097   10.535750 H    542 MOH     0.0372 ****
3558 O1      0.655062   -0.763751   10.792429 O    542 MOH    -0.6497 ****
3559 HO1     1.011287   -0.567383   11.661464 H    542 MOH     0.4215 ****
3560 HC1    -6.741373  -18.773216   18.079872 H    543 MOH     0.0372 ****
3561 C1     -5.665192  -18.765051   17.910166 C    543 MOH     0.1166 ****
3562 HC2    -5.244881  -17.904872   18.429890 H    543 MOH     0.0372 ****
3563 HC3    -5.461387  -18.704630   16.841021 H    543 MOH     0.0372 ****
3564 O1     -5.071676  -19.909779   18.410798 O    543 MOH    -0.6497 ****
3565 HO1    -5.533556  -20.171058   19.209829 H    543 MOH     0.4215 ****
3566 HC1   -10.926008   -7.119768   14.949510 H    544 MOH     0.0372 ****
3567 C1     -9.894283   -7.403501   14.743742 C    544 MOH     0.1166 ****
3568 HC2    -9.623505   -8.229387   15.400644 H    544 MOH     0.0372 ****
3569 HC3    -9.245918   -6.552712   14.954460 H    544 MOH     0.0372 ****
3570 O1     -9.756296   -7.722751   13.381854 O    544 MOH    -0.6497 ****
3571 HO1   -10.053054   -6.929933   12.929306 H    544 MOH     0.4215 ****
3572 HC1     0.699517  -11.681943   22.592627 H    545 MOH     0.0372 ****
3573 C1      0.774573  -10.640093   22.282915 C    545 MOH     0.1166 ****
3574 HC2     1.813226  -10.415557   22.039670 H    545 MOH     0.0372 ****
3575 HC3     0.412574  -10.038744   23.118008 H    545 MOH     0.0372 ****
3576 O1     -0.113392  -10.482510   21.206698 O    545 MOH    -0.6497 ****
3577 HO1     0.253803  -11.003026   20.488985 H    545 MOH     0.4215 ****
3578 HC1    -9.575585  -15.594595   23.141342 H    546 MOH     0.0372 ****
3579 C1     -8.583120  -15.573774   22.690915 C    546 MOH     0.1166 ****
3580 HC2    -8.060041  -14.662564   22.980829 H    546 MOH     0.0372 ****
3581 HC3    -8.643165  -15.629296   21.604799 H    546 MOH     0.0372 ****
3582 O1     -7.848153  -16.638486   23.139221 O    546 MOH    -0.6497 ****
3583 HO1    -8.295022  -17.434570   22.843650 H    546 MOH     0.4215 ****
3584 HC1   -11.635571   -3.365109   16.146642 H    547 MOH     0.0372 ****
3585 C1    -11.875171   -3.997894   17.000827 C    547 MOH     0.1166 ****
3586 HC2   -12.920753   -3.873378   17.281548 H    547 MOH     0.0372 ****
3587 HC3   -11.242973   -3.690483   17.834506 H    547 MOH     0.0372 ****
3588 O1    -11.573217   -5.347971   16.684750 O    547 MOH    -0.6497 ****
3589 HO1   -12.035675   -5.621089   15.889255 H    547 MOH     0.4215 ****
3590 HC1     4.199415  -10.205717    9.027491 H    548 MOH     0.0372 ****
3591 C1      3.676913   -9.276544    9.255179 C    548 MOH     0.1166 ****
3592 HC2     2.644611   -9.489650    9.533779 H    548 MOH     0.0372 ****
3593 HC3     3.717327   -8.630287    8.379074 H    548 MOH     0.0372 ****
3594 O1      4.364537   -8.713162   10.321496 O    548 MOH    -0.6497 ****
3595 HO1     4.826995   -9.428413   10.764145 H    548 MOH     0.4215 ****
3596 HC1    -2.400276  -14.991612   18.667478 H    549 MOH     0.0372 ****
3597 C1     -2.149129  -15.512129   19.591666 C    549 MOH     0.1166 ****
3598 HC2    -2.815968  -16.365776   19.712582 H    549 MOH     0.0372 ****
3599 HC3    -2.272104  -14.842193   20.442316 H    549 MOH     0.0372 ****
3600 O1     -0.809099  -15.942830   19.494793 O    549 MOH    -0.6497 ****
3601 HO1    -0.619151  -16.498456   20.253518 H    549 MOH     0.4215 ****
3602 HC1   -10.874046   -8.763376   17.888246 H    550 MOH     0.0372 ****
3603 C1    -11.883832   -8.364109   17.980170 C    550 MOH     0.1166 ****
3604 HC2   -12.496400   -9.105488   18.493529 H    550 MOH     0.0372 ****
3605 HC3   -12.285090   -8.172233   16.984563 H    550 MOH     0.0372 ****
3606 O1    -11.815704   -7.175290   18.742431 O    550 MOH    -0.6497 ****
3607 HO1   -11.481419   -6.482085   18.168260 H    550 MOH     0.4215 ****
3608 HC1    -4.257035  -12.771150    6.938697 H    551 MOH     0.0372 ****
3609 C1     -3.951616  -13.751354    6.571709 C    551 MOH     0.1166 ****
3610 HC2    -3.002452  -13.671745    6.042086 H    551 MOH     0.0372 ****
3611 HC3    -4.718337  -14.143680    5.904907 H    551 MOH     0.0372 ****
3612 O1     -3.798041  -14.671954    7.645804 O    551 MOH    -0.6497 ****
3613 HO1    -2.948759  -15.105922    7.537617 H    551 MOH     0.4215 ****
3614 HC1    -6.971158   -9.095690    1.863792 H    552 MOH     0.0372 ****
3615 C1     -6.047398   -8.907488    1.315784 C    552 MOH     0.1166 ****
3616 HC2    -5.456768   -9.822372    1.353261 H    552 MOH     0.0372 ****
3617 HC3    -5.524896   -8.084051    1.802981 H    552 MOH     0.0372 ****
3618 O1     -6.320484   -8.555170   -0.038325 O    552 MOH    -0.6497 ****
3619 HO1    -5.538752   -8.133041   -0.401778 H    552 MOH     0.4215 ****
3620 HC1    -2.863311    0.160115   11.884909 H    553 MOH     0.0372 ****
3621 C1     -3.878293   -0.223230   11.780965 C    553 MOH     0.1166 ****
3622 HC2    -4.599403    0.594083   11.802178 H    553 MOH     0.0372 ****
3623 HC3    -4.113274   -0.918069   12.587066 H    553 MOH     0.0372 ****
3624 O1     -4.005887   -0.935215   10.598682 O    553 MOH    -0.6497 ****
3625 HO1    -3.285354   -1.568408   10.566862 H    553 MOH     0.4215 ****
3626 HC1    -9.384482  -13.833820   12.774450 H    554 MOH     0.0372 ****
3627 C1     -8.527695  -14.091833   12.150782 C    554 MOH     0.1166 ****
3628 HC2    -8.341788  -13.298606   11.427411 H    554 MOH     0.0372 ****
3629 HC3    -8.773646  -14.995694   11.593581 H    554 MOH     0.0372 ****
3630 O1     -7.364334  -14.282485   12.951934 O    554 MOH    -0.6497 ****
3631 HO1    -6.668049  -14.630312   12.390491 H    554 MOH     0.4215 ****
3632 HC1    -3.329810  -14.173891   11.957741 H    555 MOH     0.0372 ****
3633 C1     -3.828063  -14.949562   11.377914 C    555 MOH     0.1166 ****
3634 HC2    -3.101179  -15.695024   11.055473 H    555 MOH     0.0372 ****
3635 HC3    -4.290521  -14.475586   10.511708 H    555 MOH     0.0372 ****
3636 O1     -4.803208  -15.580306   12.174823 O    555 MOH    -0.6497 ****
3637 HO1    -4.331513  -15.949362   12.924356 H    555 MOH     0.4215 ****
3638 HC1     0.010739   -8.122018   19.144775 H    556 MOH     0.0372 ****
3639 C1     -0.611645   -7.227546   19.135582 C    556 MOH     0.1166 ****
3640 HC2    -0.167663   -6.440443   19.745108 H    556 MOH     0.0372 ****
3641 HC3    -1.583326   -7.505563   19.544997 H    556 MOH     0.0372 ****
3642 O1     -0.791201   -6.774799   17.814000 O    556 MOH    -0.6497 ****
3643 HO1     0.066164   -6.499231   17.480952 H    556 MOH     0.4215 ****
3644 HC1    -4.005310   -2.475128    7.664189 H    557 MOH     0.0372 ****
3645 C1     -3.412371   -2.813566    6.814954 C    557 MOH     0.1166 ****
3646 HC2    -3.045176   -3.809283    7.063148 H    557 MOH     0.0372 ****
3647 HC3    -2.565398   -2.143630    6.662926 H    557 MOH     0.0372 ****
3648 O1     -4.216620   -2.864597    5.644692 O    557 MOH    -0.6497 ****
3649 HO1    -3.809588   -3.514936    5.066986 H    557 MOH     0.4215 ****
3650 HC1     3.002568   -4.623330   22.362111 H    558 MOH     0.0372 ****
3651 C1      2.749688   -3.758660   22.975879 C    558 MOH     0.1166 ****
3652 HC2     3.557401   -3.575357   23.683693 H    558 MOH     0.0372 ****
3653 HC3     1.831701   -3.991362   23.514695 H    558 MOH     0.0372 ****
3654 O1      2.557431   -2.650266   22.119573 O    558 MOH    -0.6497 ****
3655 HO1     1.872116   -2.921343   21.504390 H    558 MOH     0.4215 ****
3656 HC1    -0.738085  -11.882801   18.827991 H    559 MOH     0.0372 ****
3657 C1      0.084639  -12.573557   18.642729 C    559 MOH     0.1166 ****
3658 HC2     0.360035  -12.452308   17.595504 H    559 MOH     0.0372 ****
3659 HC3    -0.223666  -13.613366   18.749502 H    559 MOH     0.0372 ****
3660 O1      1.174677  -12.262880   19.527320 O    559 MOH    -0.6497 ****
3661 HO1     1.785513  -13.003443   19.540047 H    559 MOH     0.4215 ****
3662 HC1     4.096069  -10.925051   17.763088 H    560 MOH     0.0372 ****
3663 C1      3.264685  -10.241643   17.593383 C    560 MOH     0.1166 ****
3664 HC2     2.342656  -10.701739   17.950471 H    560 MOH     0.0372 ****
3665 HC3     3.194248  -10.053441   16.522116 H    560 MOH     0.0372 ****
3666 O1      3.592620   -9.020981   18.245335 O    560 MOH    -0.6497 ****
3667 HO1     4.205766   -9.218165   18.957391 H    560 MOH     0.4215 ****
3668 HC1    -3.397360   -8.695607   26.246248 H    561 MOH     0.0372 ****
3669 C1     -4.288789   -8.068946   26.214428 C    561 MOH     0.1166 ****
3670 HC2    -5.177331   -8.699689   26.174123 H    561 MOH     0.0372 ****
3671 HC3    -4.279551   -7.450858   25.316403 H    561 MOH     0.0372 ****
3672 O1     -4.278397   -7.221422   27.335900 O    561 MOH    -0.6497 ****
3673 HO1    -3.522645   -6.641301   27.219227 H    561 MOH     0.4215 ****
3674 HC1     3.855891   -8.098748   13.785612 H    562 MOH     0.0372 ****
3675 C1      2.846106   -8.419631   13.529640 C    562 MOH     0.1166 ****
3676 HC2     2.148667   -7.988929   14.248767 H    562 MOH     0.0372 ****
3677 HC3     2.764699   -9.505980   13.564288 H    562 MOH     0.0372 ****
3678 O1      2.491035   -7.960352   12.257555 O    562 MOH    -0.6497 ****
3679 HO1     3.089748   -8.367783   11.628230 H    562 MOH     0.4215 ****
3680 HC1    -1.740365   -7.433711   24.832742 H    563 MOH     0.0372 ****
3681 C1     -1.515776   -6.367775   24.882946 C    563 MOH     0.1166 ****
3682 HC2    -1.874887   -5.819906   24.011791 H    563 MOH     0.0372 ****
3683 HC3    -0.429780   -6.321235   24.810821 H    563 MOH     0.0372 ****
3684 O1     -1.876620   -5.769691   26.149374 O    563 MOH    -0.6497 ****
3685 HO1    -1.948788   -4.820922   26.023509 H    563 MOH     0.4215 ****
3686 HC1    -2.653733  -20.884676   16.200382 H    564 MOH     0.0372 ****
3687 C1     -2.072341  -20.127375   16.727177 C    564 MOH     0.1166 ****
3688 HC2    -1.018677  -20.371508   16.589998 H    564 MOH     0.0372 ****
3689 HC3    -2.302127  -20.116761   17.792080 H    564 MOH     0.0372 ****
3690 O1     -2.200513  -18.867113   16.174926 O    564 MOH    -0.6497 ****
3691 HO1    -1.402038  -18.390687   16.416050 H    564 MOH     0.4215 ****
3692 HC1    -7.498279   -9.527617   21.282358 H    565 MOH     0.0372 ****
3693 C1     -7.153024  -10.370650   20.684853 C    565 MOH     0.1166 ****
3694 HC2    -6.412861  -10.902597   21.283773 H    565 MOH     0.0372 ****
3695 HC3    -6.711351   -9.984855   19.766322 H    565 MOH     0.0372 ****
3696 O1     -8.205533  -11.288392   20.351099 O    565 MOH    -0.6497 ****
3697 HO1    -7.926673  -11.801560   19.589545 H    565 MOH     0.4215 ****
3698 HC1    -0.340868   -0.990329   15.059819 H    566 MOH     0.0372 ****
3699 C1     -0.833348   -0.553911   14.190785 C    566 MOH     0.1166 ****
3700 HC2    -1.775583   -0.066463   14.441100 H    566 MOH     0.0372 ****
3701 HC3    -1.085650   -1.388371   13.536004 H    566 MOH     0.0372 ****
3702 O1      0.004388    0.371179   13.490749 O    566 MOH    -0.6497 ****
3703 HO1    -0.536589    1.070917   13.118811 H    566 MOH     0.4215 ****
3704 HC1    -2.433185  -21.207192   11.537720 H    567 MOH     0.0372 ****
3705 C1     -2.466094  -20.122068   11.438725 C    567 MOH     0.1166 ****
3706 HC2    -2.020957  -19.652991   12.316245 H    567 MOH     0.0372 ****
3707 HC3    -3.503592  -19.796286   11.363772 H    567 MOH     0.0372 ****
3708 O1     -1.780202  -19.744847   10.273413 O    567 MOH    -0.6497 ****
3709 HO1    -1.678588  -18.791587   10.313718 H    567 MOH     0.4215 ****
3710 HC1    -1.465546   -7.826446   14.705558 H    568 MOH     0.0372 ****
3711 C1     -0.802171   -8.648250   14.974966 C    568 MOH     0.1166 ****
3712 HC2     0.213966   -8.262047   15.052748 H    568 MOH     0.0372 ****
3713 HC3    -0.816027   -9.430862   14.216240 H    568 MOH     0.0372 ****
3714 O1     -1.180335   -9.075278   16.261900 O    568 MOH    -0.6497 ****
3715 HO1    -1.126641   -8.306138   16.833243 H    568 MOH     0.4215 ****
3716 HC1     2.314366   -1.627196   18.808899 H    569 MOH     0.0372 ****
3717 C1      1.974884   -2.373066   18.089771 C    569 MOH     0.1166 ****
3718 HC2     1.468548   -3.210383   18.571311 H    569 MOH     0.0372 ****
3719 HC3     2.861694   -2.769883   17.594797 H    569 MOH     0.0372 ****
3720 O1      1.133685   -1.752528   17.135177 O    569 MOH    -0.6497 ****
3721 HO1     1.663115   -1.067488   16.719398 H    569 MOH     0.4215 ****
3722 HC1    -4.317079   -4.130983   12.971732 H    570 MOH     0.0372 ****
3723 C1     -3.660632   -3.855415   13.796926 C    570 MOH     0.1166 ****
3724 HC2    -4.207382   -3.891341   14.740207 H    570 MOH     0.0372 ****
3725 HC3    -3.314222   -2.832753   13.646312 H    570 MOH     0.0372 ****
3726 O1     -2.541727   -4.727433   13.861980 O    570 MOH    -0.6497 ****
3727 HO1    -1.936664   -4.400835   14.532317 H    570 MOH     0.4215 ****
3728 HC1    -7.860855    5.978061   13.019816 H    571 MOH     0.0372 ****
3729 C1     -8.768450    6.357732   12.550297 C    571 MOH     0.1166 ****
3730 HC2    -8.637968    6.337728   11.467716 H    571 MOH     0.0372 ****
3731 HC3    -8.911632    7.388559   12.872030 H    571 MOH     0.0372 ****
3732 O1     -9.908716    5.564506   12.924356 O    571 MOH    -0.6497 ****
3733 HO1   -10.681788    6.069509   12.662020 H    571 MOH     0.4215 ****
3734 HC1   -14.979006  -14.198794   13.024765 H    572 MOH     0.0372 ****
3735 C1    -14.335261  -13.414549   12.628079 C    572 MOH     0.1166 ****
3736 HC2   -14.301197  -12.613157   13.365591 H    572 MOH     0.0372 ****
3737 HC3   -14.734210  -12.974457   11.713082 H    572 MOH     0.0372 ****
3738 O1    -13.023521  -13.879135   12.397562 O    572 MOH    -0.6497 ****
3739 HO1   -12.581271  -13.092033   12.072293 H    572 MOH     0.4215 ****
3740 HC1   -10.273602  -13.124284   21.962595 H    573 MOH     0.0372 ****
3741 C1    -10.666777  -12.689500   22.881127 C    573 MOH     0.1166 ****
3742 HC2   -10.850952  -11.624788   22.739706 H    573 MOH     0.0372 ****
3743 HC3    -9.967606  -12.833611   23.704906 H    573 MOH     0.0372 ****
3744 O1    -11.831293  -13.350454   23.209932 O    573 MOH    -0.6497 ****
3745 HO1   -12.255645  -12.900972   23.944615 H    573 MOH     0.4215 ****
3746 HC1    -6.299700  -16.437627    6.824853 H    574 MOH     0.0372 ****
3747 C1     -7.036399  -16.091841    7.549638 C    574 MOH     0.1166 ****
3748 HC2    -7.307176  -16.899765    8.230582 H    574 MOH     0.0372 ****
3749 HC3    -7.945148  -15.792187    7.029207 H    574 MOH     0.0372 ****
3750 O1     -6.596458  -15.010391    8.343719 O    574 MOH    -0.6497 ****
3751 HO1    -5.649026  -15.078977    8.479483 H    574 MOH     0.4215 ****
3752 HC1    -5.351113    0.117657    7.176992 H    575 MOH     0.0372 ****
3753 C1     -6.198663   -0.546971    7.346698 C    575 MOH     0.1166 ****
3754 HC2    -7.064112    0.096837    7.502969 H    575 MOH     0.0372 ****
3755 HC3    -5.965991   -1.148729    8.224925 H    575 MOH     0.0372 ****
3756 O1     -6.332031   -1.248750    6.131181 O    575 MOH    -0.6497 ****
3757 HO1    -5.486213   -1.654549    5.926120 H    575 MOH     0.4215 ****
3758 HC1    -7.462483  -18.688300   12.587066 H    576 MOH     0.0372 ****
3759 C1     -6.427294  -18.384155   12.430796 C    576 MOH     0.1166 ****
3760 HC2    -5.838397  -19.286792   12.263212 H    576 MOH     0.0372 ****
3761 HC3    -6.054326  -17.827305   13.289223 H    576 MOH     0.0372 ****
3762 O1     -6.429604  -17.652574   11.254170 O    576 MOH    -0.6497 ****
3763 HO1    -5.792209  -16.943447   11.363772 H    576 MOH     0.4215 ****
3764 HC1     5.600067  -13.496198   17.157805 H    577 MOH     0.0372 ****
3765 C1      5.984004  -12.899339   16.330490 C    577 MOH     0.1166 ****
3766 HC2     6.671629  -13.516611   15.752076 H    577 MOH     0.0372 ****
3767 HC3     6.485144  -12.037527   16.772432 H    577 MOH     0.0372 ****
3768 O1      4.918793  -12.459656   15.543480 O    577 MOH    -0.6497 ****
3769 HO1     4.389363  -13.215732   15.281850 H    577 MOH     0.4215 ****
3770 HC1   -15.984751   -5.192428   13.275788 H    578 MOH     0.0372 ****
3771 C1    -16.151027   -4.122001   13.394582 C    578 MOH     0.1166 ****
3772 HC2   -15.797689   -3.801118   14.374632 H    578 MOH     0.0372 ****
3773 HC3   -17.217971   -3.908896   13.322457 H    578 MOH     0.0372 ****
3774 O1    -15.463981   -3.407567   12.384834 O    578 MOH    -0.6497 ****
3775 HO1   -15.554625   -3.937473   11.590046 H    578 MOH     0.4215 ****
3776 HC1     5.492102   -8.039552   15.893498 H    579 MOH     0.0372 ****
3777 C1      6.132383   -8.914836   16.002392 C    579 MOH     0.1166 ****
3778 HC2     5.982272   -9.315736   17.005070 H    579 MOH     0.0372 ****
3779 HC3     7.171037   -8.602118   15.896326 H    579 MOH     0.0372 ****
3780 O1      5.753064   -9.856665   14.999008 O    579 MOH    -0.6497 ****
3781 HO1     5.682050  -10.729908   15.391452 H    579 MOH     0.4215 ****
3782 HC1   -13.506763   -5.641501   12.951933 H    580 MOH     0.0372 ****
3783 C1    -13.239450   -6.646200   13.280738 C    580 MOH     0.1166 ****
3784 HC2   -12.294905   -6.935648   12.820412 H    580 MOH     0.0372 ****
3785 HC3   -14.002130   -7.359818   12.971025 H    580 MOH     0.0372 ****
3786 O1    -13.072019   -6.638444   14.709801 O    580 MOH    -0.6497 ****
3787 HO1   -13.900516   -6.450649   15.156692 H    580 MOH     0.4215 ****
3788 HC1     3.627838   -5.826030   20.314329 H    581 MOH     0.0372 ****
3789 C1      4.486358   -5.464322   19.748644 C    581 MOH     0.1166 ****
3790 HC2     4.138216   -4.945030   18.856275 H    581 MOH     0.0372 ****
3791 HC3     5.115670   -6.304905   19.455195 H    581 MOH     0.0372 ****
3792 O1      5.235758   -4.574749   20.544139 O    581 MOH    -0.6497 ****
3793 HO1     5.403190   -4.993203   21.391960 H    581 MOH     0.4215 ****
3794 HC1     4.426891   -4.504938   10.382308 H    582 MOH     0.0372 ****
3795 C1      3.980022   -4.090974    9.478625 C    582 MOH     0.1166 ****
3796 HC2     2.952338   -3.772132    9.650452 H    582 MOH     0.0372 ****
3797 HC3     4.010621   -4.863380    8.709293 H    582 MOH     0.0372 ****
3798 O1      4.790622   -3.026671    9.090423 O    582 MOH    -0.6497 ****
3799 HO1     4.972487   -2.480435    9.858341 H    582 MOH     0.4215 ****
3800 HC1   -12.087636  -16.976923    5.515999 H    583 MOH     0.0372 ****
3801 C1    -11.573794  -16.667880    6.426045 C    583 MOH     0.1166 ****
3802 HC2   -10.490685  -16.694007    6.310080 H    583 MOH     0.0372 ****
3803 HC3   -11.876903  -17.307196    7.256188 H    583 MOH     0.0372 ****
3804 O1    -12.013158  -15.410475    6.708888 O    583 MOH    -0.6497 ****
3805 HO1   -12.345134  -15.048359    5.883694 H    583 MOH     0.4215 ****
3806 HC1   -11.337081   -4.238760   20.766878 H    584 MOH     0.0372 ****
3807 C1    -11.403476   -4.499223   21.823295 C    584 MOH     0.1166 ****
3808 HC2   -11.295512   -5.577406   21.947039 H    584 MOH     0.0372 ****
3809 HC3   -12.387281   -4.184463   22.171899 H    584 MOH     0.0372 ****
3810 O1    -10.419671   -3.780297   22.546665 O    584 MOH    -0.6497 ****
3811 HO1    -9.596947   -3.889300   22.063711 H    584 MOH     0.4215 ****
3812 HC1    -7.010418   -8.875644   24.982648 H    585 MOH     0.0372 ****
3813 C1     -7.420914   -9.832170   25.305796 C    585 MOH     0.1166 ****
3814 HC2    -6.642069  -10.594778   25.327009 H    585 MOH     0.0372 ****
3815 HC3    -8.206111  -10.111004   24.603639 H    585 MOH     0.0372 ****
3816 O1     -8.016740   -9.687650   26.561618 O    585 MOH    -0.6497 ****
3817 HO1    -7.396088   -9.238577   27.140031 H    585 MOH     0.4215 ****
3818 HC1   -18.710999   -7.554961   11.350337 H    586 MOH     0.0372 ****
3819 C1    -18.152124   -6.922585   12.039766 C    586 MOH     0.1166 ****
3820 HC2   -18.107090   -5.921968   11.609138 H    586 MOH     0.0372 ****
3821 HC3   -17.138874   -7.316952   12.120376 H    586 MOH     0.0372 ****
3822 O1    -18.817231   -6.910337   13.328114 O    586 MOH    -0.6497 ****
3823 HO1   -18.350155   -7.528425   13.893800 H    586 MOH     0.4215 ****
3824 HC1   -10.236074  -13.768092    9.249522 H    587 MOH     0.0372 ****
3825 C1    -11.118265  -13.184705    9.510445 C    587 MOH     0.1166 ****
3826 HC2   -10.814002  -12.186130    9.821572 H    587 MOH     0.0372 ****
3827 HC3   -11.653469  -13.674603   10.323618 H    587 MOH     0.0372 ****
3828 O1    -11.939257  -13.129592    8.343011 O    587 MOH    -0.6497 ****
3829 HO1   -12.029901  -14.018348    7.990165 H    587 MOH     0.4215 ****
3830 HC1    -2.699344  -22.760577   14.700609 H    588 MOH     0.0372 ****
3831 C1     -1.861608  -22.532366   14.040878 C    588 MOH     0.1166 ****
3832 HC2    -1.504229  -21.530933   14.276345 H    588 MOH     0.0372 ****
3833 HC3    -2.212060  -22.577273   13.009916 H    588 MOH     0.0372 ****
3834 O1     -0.780809  -23.474195   14.245232 O    588 MOH    -0.6497 ****
3835 HO1     0.052308  -23.085951   13.967339 H    588 MOH     0.4215 ****
3836 HC1    -8.505755  -11.905255   14.315942 H    589 MOH     0.0372 ****
3837 C1     -8.817524  -10.861772   14.280587 C    589 MOH     0.1166 ****
3838 HC2    -8.011543  -10.204493   14.608685 H    589 MOH     0.0372 ****
3839 HC3    -9.660456  -10.738481   14.959410 H    589 MOH     0.0372 ****
3840 O1     -9.270744  -10.515578   12.986582 O    589 MOH    -0.6497 ****
3841 HO1    -9.482055   -9.579873   13.016280 H    589 MOH     0.4215 ****
3842 HC1   -12.780457  -12.734407   15.132651 H    590 MOH     0.0372 ****
3843 C1    -12.009117  -13.027529   15.845414 C    590 MOH     0.1166 ****
3844 HC2   -11.111337  -13.283909   15.282557 H    590 MOH     0.0372 ****
3845 HC3   -12.339361  -13.915878   16.384230 H    590 MOH     0.0372 ****
3846 O1    -11.748732  -11.950162   16.754047 O    590 MOH    -0.6497 ****
3847 HO1   -12.414994  -11.975065   17.444890 H    590 MOH     0.4215 ****
3848 HC1   -12.909783  -12.123668   21.015779 H    591 MOH     0.0372 ****
3849 C1    -12.426541  -12.274311   20.050578 C    591 MOH     0.1166 ****
3850 HC2   -11.971012  -13.263905   20.030779 H    591 MOH     0.0372 ****
3851 HC3   -11.666171  -11.505172   19.911986 H    591 MOH     0.0372 ****
3852 O1    -13.457689  -12.224913   19.064164 O    591 MOH    -0.6497 ****
3853 HO1   -13.970376  -11.423930   19.194272 H    591 MOH     0.4215 ****
3854 HC1   -17.209888  -10.696023   14.682224 H    592 MOH     0.0372 ****
3855 C1    -16.622145   -9.780323   14.743742 C    592 MOH     0.1166 ****
3856 HC2   -16.156224   -9.569666   13.780663 H    592 MOH     0.0372 ****
3857 HC3   -15.833485   -9.928925   15.480547 H    592 MOH     0.0372 ****
3858 O1    -17.403878   -8.655599   15.119216 O    592 MOH    -0.6497 ****
3859 HO1   -17.803981   -8.819714   15.976229 H    592 MOH     0.4215 ****
3860 HC1    -3.392741   -0.022780   17.161340 H    593 MOH     0.0372 ****
3861 C1     -2.447042    0.320148   17.581362 C    593 MOH     0.1166 ****
3862 HC2    -2.560780    1.294637   18.057244 H    593 MOH     0.0372 ****
3863 HC3    -1.717271    0.433641   16.779502 H    593 MOH     0.0372 ****
3864 O1     -2.005369   -0.602084   18.553633 O    593 MOH    -0.6497 ****
3865 HO1    -1.173984   -0.990329   18.271498 H    593 MOH     0.4215 ****
3866 HC1     1.425131   14.652358   12.503628 H    594 MOH     0.0372 ****
3867 C1      0.388788   14.791162   12.810512 C    594 MOH     0.1166 ****
3868 HC2    -0.174706   15.155320   11.952084 H    594 MOH     0.0372 ****
3869 HC3     0.318928   15.541114   13.598936 H    594 MOH     0.0372 ****
3870 O1     -0.136601   13.548454   13.227705 O    594 MOH    -0.6497 ****
3871 HO1    -0.899281   13.700731   13.789855 H    594 MOH     0.4215 ****
3872 HC1    -4.076439    4.111387   16.594948 H    595 MOH     0.0372 ****
3873 C1     -4.877224    3.717427   17.220737 C    595 MOH     0.1166 ****
3874 HC2    -5.443028    2.987071   16.641617 H    595 MOH     0.0372 ****
3875 HC3    -5.549837    4.494324   17.582069 H    595 MOH     0.0372 ****
3876 O1     -4.380126    2.976457   18.265134 O    595 MOH    -0.6497 ****
3877 HO1    -3.835684    3.572499   18.784150 H    595 MOH     0.4215 ****
3878 HC1     8.032905    5.350421   21.101339 H    596 MOH     0.0372 ****
3879 C1      8.094104    6.130175   21.859358 C    596 MOH     0.1166 ****
3880 HC2     8.454371    5.684368   22.787082 H    596 MOH     0.0372 ****
3881 HC3     7.101062    6.555570   22.005022 H    596 MOH     0.0372 ****
3882 O1      8.965326    7.152837   21.431558 O    596 MOH    -0.6497 ****
3883 HO1     9.852136    6.792762   21.365090 H    596 MOH     0.4215 ****
3884 HC1    14.291382   10.099573   15.320741 H    597 MOH     0.0372 ****
3885 C1     14.724972   10.292674   16.301498 C    597 MOH     0.1166 ****
3886 HC2    15.010760   11.343505   16.352410 H    597 MOH     0.0372 ****
3887 HC3    15.612937    9.673362   16.428071 H    597 MOH     0.0372 ****
3888 O1     13.770612    9.977915   17.309126 O    597 MOH    -0.6497 ****
3889 HO1    13.971530    9.086301   17.601868 H    597 MOH     0.4215 ****
3890 HC1     7.654163   -0.754116    7.688231 H    598 MOH     0.0372 ****
3891 C1      7.467102   -1.740036    8.113202 C    598 MOH     0.1166 ****
3892 HC2     7.075081   -1.645322    9.125779 H    598 MOH     0.0372 ****
3893 HC3     8.424349   -2.256470    8.181791 H    598 MOH     0.0372 ****
3894 O1      6.625903   -2.543877    7.263967 O    598 MOH    -0.6497 ****
3895 HO1     5.909988   -2.890071    7.801368 H    598 MOH     0.4215 ****
3896 HC1    10.284571   -0.282181   14.325135 H    599 MOH     0.0372 ****
3897 C1      9.435866    0.152603   14.853344 C    599 MOH     0.1166 ****
3898 HC2     9.299612    1.179756   14.515347 H    599 MOH     0.0372 ****
3899 HC3     9.600411    0.140356   15.930974 H    599 MOH     0.0372 ****
3900 O1      8.270196   -0.545501   14.519589 O    599 MOH    -0.6497 ****
3901 HO1     8.297332   -1.346076   15.049212 H    599 MOH     0.4215 ****
3902 HC1    18.361124    8.488217   10.705455 H    600 MOH     0.0372 ****
3903 C1     18.166557    9.229596   11.480444 C    600 MOH     0.1166 ****
3904 HC2    17.102501    9.271645   11.713083 H    600 MOH     0.0372 ****
3905 HC3    18.467934   10.217965   11.133255 H    600 MOH     0.0372 ****
3906 O1     18.836283    8.899323   12.691718 O    600 MOH    -0.6497 ****
3907 HO1    18.618622    8.004851   12.963954 H    600 MOH     0.4215 ****
3908 HC1     2.474754   13.201035   17.172654 H    601 MOH     0.0372 ****
3909 C1      3.078662   13.752579   17.893196 C    601 MOH     0.1166 ****
3910 HC2     3.890417   13.117344   18.246749 H    601 MOH     0.0372 ****
3911 HC3     2.430298   14.038352   18.721925 H    601 MOH     0.0372 ****
3912 O1      3.583267   14.876486   17.237708 O    601 MOH    -0.6497 ****
3913 HO1     4.396176   15.138173   17.676821 H    601 MOH     0.4215 ****
3914 HC1     9.875230   14.684609    3.591961 H    602 MOH     0.0372 ****
3915 C1     10.412743   15.027130    2.707370 C    602 MOH     0.1166 ****
3916 HC2    10.084808   14.453133    1.840458 H    602 MOH     0.0372 ****
3917 HC3    11.472181   14.842601    2.885561 H    602 MOH     0.0372 ****
3918 O1     10.152358   16.407825    2.438670 O    602 MOH    -0.6497 ****
3919 HO1    10.411588   16.612766    1.537816 H    602 MOH     0.4215 ****
3920 HC1     0.536589    7.879519   21.557423 H    603 MOH     0.0372 ****
3921 C1     -0.483589    7.586805   21.805617 C    603 MOH     0.1166 ****
3922 HC2    -0.644670    7.644368   22.881127 H    603 MOH     0.0372 ****
3923 HC3    -0.692012    6.564551   21.488834 H    603 MOH     0.0372 ****
3924 O1     -1.369821    8.479235   21.204577 O    603 MOH    -0.6497 ****
3925 HO1    -0.918334    8.855640   20.445144 H    603 MOH     0.4215 ****
3926 HC1    13.244069   12.852391   12.234220 H    604 MOH     0.0372 ****
3927 C1     13.292566   11.764818   12.183308 C    604 MOH     0.1166 ****
3928 HC2    12.914402   11.410050   11.225179 H    604 MOH     0.0372 ****
3929 HC3    12.685771   11.318194   12.971025 H    604 MOH     0.0372 ****
3930 O1     14.629132   11.330441   12.256848 O    604 MOH    -0.6497 ****
3931 HO1    14.596800   10.371058   12.278061 H    604 MOH     0.4215 ****
3932 HC1    12.440974    7.270820    5.156081 H    605 MOH     0.0372 ****
3933 C1     12.639583    8.231429    5.630550 C    605 MOH     0.1166 ****
3934 HC2    13.704217    8.448617    5.547111 H    605 MOH     0.0372 ****
3935 HC3    12.410375    8.196319    6.695453 H    605 MOH     0.0372 ****
3936 O1     11.846304    9.227146    4.979305 O    605 MOH    -0.6497 ****
3937 HO1    11.893646   10.003226    5.542869 H    605 MOH     0.4215 ****
3938 HC1    -4.864523   10.666222   17.761674 H    606 MOH     0.0372 ****
3939 C1     -3.824137   10.693574   17.435697 C    606 MOH     0.1166 ****
3940 HC2    -3.239859   10.053849   18.098257 H    606 MOH     0.0372 ****
3941 HC3    -3.482923   11.727259   17.489438 H    606 MOH     0.0372 ****
3942 O1     -3.757165   10.211433   16.112701 O    606 MOH    -0.6497 ****
3943 HO1    -4.351836    9.458623   16.068860 H    606 MOH     0.4215 ****
3944 HC1    -1.984122    5.984022   13.601765 H    607 MOH     0.0372 ****
3945 C1     -1.069599    6.290208   13.094062 C    607 MOH     0.1166 ****
3946 HC2    -0.474351    6.944630   13.731165 H    607 MOH     0.0372 ****
3947 HC3    -1.344995    6.836444   12.191794 H    607 MOH     0.0372 ****
3948 O1     -0.367541    5.150787   12.695961 O    607 MOH    -0.6497 ****
3949 HO1     0.567189    5.349604   12.785763 H    607 MOH     0.4215 ****
3950 HC1    11.282232    1.803559   10.168054 H    608 MOH     0.0372 ****
3951 C1     11.329575    2.526975   10.982641 C    608 MOH     0.1166 ****
3952 HC2    10.536296    3.254474   10.811521 H    608 MOH     0.0372 ****
3953 HC3    12.290286    3.040552   10.935972 H    608 MOH     0.0372 ****
3954 O1     11.144246    1.885209   12.276647 O    608 MOH    -0.6497 ****
3955 HO1    10.952565    2.560860   12.932135 H    608 MOH     0.4215 ****
3956 HC1    -5.038305    5.646401    8.746062 H    609 MOH     0.0372 ****
3957 C1     -4.995581    5.888084    9.808137 C    609 MOH     0.1166 ****
3958 HC2    -3.958660    5.826030   10.139063 H    609 MOH     0.0372 ****
3959 HC3    -5.593139    5.186305   10.390086 H    609 MOH     0.0372 ****
3960 O1     -5.429171    7.181822   10.077544 O    609 MOH    -0.6497 ****
3961 HO1    -6.198779    7.373291    9.536608 H    609 MOH     0.4215 ****
3962 HC1    -7.641577    9.583955   16.461304 H    610 MOH     0.0372 ****
3963 C1     -8.076322    8.698465   16.924459 C    610 MOH     0.1166 ****
3964 HC2    -8.488550    8.023630   16.174219 H    610 MOH     0.0372 ****
3965 HC3    -8.898469    8.984647   17.581361 H    610 MOH     0.0372 ****
3966 O1     -7.171037    7.995869   17.719954 O    610 MOH    -0.6497 ****
3967 HO1    -7.697580    7.278169   18.080579 H    610 MOH     0.4215 ****
3968 HC1    18.040117   10.518027   14.487062 H    611 MOH     0.0372 ****
3969 C1     18.122678   11.457815   15.032949 C    611 MOH     0.1166 ****
3970 HC2    17.295913   12.113462   14.760006 H    611 MOH     0.0372 ****
3971 HC3    19.079925   11.919952   14.788290 H    611 MOH     0.0372 ****
3972 O1     18.081687   11.099781   16.374330 O    611 MOH    -0.6497 ****
3973 HO1    18.305698   11.842793   16.938602 H    611 MOH     0.4215 ****
3974 HC1     5.947516   15.142256   14.230383 H    612 MOH     0.0372 ****
3975 C1      5.281831   16.001210   14.315235 C    612 MOH     0.1166 ****
3976 HC2     4.239714   15.681144   14.308164 H    612 MOH     0.0372 ****
3977 HC3     5.416931   16.625830   13.432766 H    612 MOH     0.0372 ****
3978 O1      5.507575   16.798111   15.518731 O    612 MOH    -0.6497 ****
3979 HO1     5.434829   16.231054   16.288770 H    612 MOH     0.4215 ****
3980 HC1     6.021994    4.488200   23.180233 H    613 MOH     0.0372 ****
3981 C1      6.321639    3.441043   23.165384 C    613 MOH     0.1166 ****
3982 HC2     6.955569    3.252433   22.298471 H    613 MOH     0.0372 ****
3983 HC3     5.453881    2.787030   23.086188 H    613 MOH     0.0372 ****
3984 O1      7.026583    3.129958   24.358980 O    613 MOH    -0.6497 ****
3985 HO1     7.460751    2.281618   24.240186 H    613 MOH     0.4215 ****
3986 HC1    -1.728933    7.755819    9.132850 H    614 MOH     0.0372 ****
3987 C1     -2.269333    8.625388    8.759497 C    614 MOH     0.1166 ****
3988 HC2    -2.712738    8.295932    7.819752 H    614 MOH     0.0372 ****
3989 HC3    -1.546491    9.428413    8.613126 H    614 MOH     0.0372 ****
3990 O1     -3.260643    8.963826    9.752982 O    614 MOH    -0.6497 ****
3991 HO1    -3.896306    8.249800    9.835714 H    614 MOH     0.4215 ****
3992 HC1    12.827799   -0.859444   10.772631 H    615 MOH     0.0372 ****
3993 C1     12.147680   -1.428134   11.406905 C    615 MOH     0.1166 ****
3994 HC2    12.502174   -1.390983   12.437160 H    615 MOH     0.0372 ****
3995 HC3    12.092832   -2.464677   11.075272 H    615 MOH     0.0372 ****
3996 O1     10.915038   -0.805147   11.324881 O    615 MOH    -0.6497 ****
3997 HO1    11.017229    0.087692   11.660757 H    615 MOH     0.4215 ****
3998 HC1     2.888137   19.396203   16.964057 H    616 MOH     0.0372 ****
3999 C1      2.433762   19.694224   16.019363 C    616 MOH     0.1166 ****
4000 HC2     1.352962   19.559502   16.067446 H    616 MOH     0.0372 ****
4001 HC3     2.856383   19.069604   15.231646 H    616 MOH     0.0372 ****
4002 O1      2.715509   21.051650   15.759854 O    616 MOH    -0.6497 ****
4003 HO1     2.445887   21.245976   14.859000 H    616 MOH     0.4215 ****
4004 HC1     3.929099   22.309871   20.087348 H    617 MOH     0.0372 ****
4005 C1      3.587308   21.640344   19.298217 C    617 MOH     0.1166 ****
4006 HC2     3.089055   20.764243   19.713996 H    617 MOH     0.0372 ****
4007 HC3     4.459684   21.322318   18.727582 H    617 MOH     0.0372 ****
4008 O1      2.806153   22.370292   18.376149 O    617 MOH    -0.6497 ****
4009 HO1     2.833289   21.883252   17.549542 H    617 MOH     0.4215 ****
4010 HC1     6.695762    5.603943   15.756319 H    618 MOH     0.0372 ****
4011 C1      6.555466    5.449625   14.687174 C    618 MOH     0.1166 ****
4012 HC2     6.359167    6.404109   14.197856 H    618 MOH     0.0372 ****
4013 HC3     5.721195    4.770708   14.511104 H    618 MOH     0.0372 ****
4014 O1      7.730951    4.895224   14.135630 O    618 MOH    -0.6497 ****
4015 HO1     8.377583    4.794386   14.837787 H    618 MOH     0.4215 ****
4016 HC1     9.458960   13.640310   17.046789 H    619 MOH     0.0372 ****
4017 C1      9.941625   12.674395   16.899711 C    619 MOH     0.1166 ****
4018 HC2     9.168553   11.920360   16.751925 H    619 MOH     0.0372 ****
4019 HC3    10.506274   12.431895   17.799150 H    619 MOH     0.0372 ****
4020 O1     10.849797   12.702156   15.776825 O    619 MOH    -0.6497 ****
4021 HO1    11.561093   13.306363   16.005928 H    619 MOH     0.4215 ****
4022 HC1    13.157466   -0.485081   16.001685 H    620 MOH     0.0372 ****
4023 C1     12.991189   -0.398124   17.075780 C    620 MOH     0.1166 ****
4024 HC2    13.063358    0.658015   17.335289 H    620 MOH     0.0372 ****
4025 HC3    13.778118   -0.952117   17.588433 H    620 MOH     0.0372 ****
4026 O1     11.665593   -0.917007   17.309833 O    620 MOH    -0.6497 ****
4027 HO1    11.354401   -0.568363   18.148461 H    620 MOH     0.4215 ****
4028 HC1     7.953231   18.441718    8.174720 H    621 MOH     0.0372 ****
4029 C1      7.372416   18.823022    9.014763 C    621 MOH     0.1166 ****
4030 HC2     7.669752   19.830171    9.306798 H    621 MOH     0.0372 ****
4031 HC3     7.580263   18.167784    9.861170 H    621 MOH     0.0372 ****
4032 O1      5.993127   18.779340    8.729799 O    621 MOH    -0.6497 ****
4033 HO1     5.587827   18.104505    9.279221 H    621 MOH     0.4215 ****
4034 HC1    -3.469067    8.084868   19.200636 H    622 MOH     0.0372 ****
4035 C1     -3.860510    7.315728   18.535956 C    622 MOH     0.1166 ****
4036 HC2    -3.361102    7.349612   17.567926 H    622 MOH     0.0372 ****
4037 HC3    -4.932073    7.478211   18.411505 H    622 MOH     0.0372 ****
4038 O1     -3.719637    6.048933   19.120733 O    622 MOH    -0.6497 ****
4039 HO1    -4.165929    6.048525   19.969968 H    622 MOH     0.4215 ****
4040 HC1    12.751011    5.652933   14.820110 H    623 MOH     0.0372 ****
4041 C1     12.734268    4.645784   14.402210 C    623 MOH     0.1166 ****
4042 HC2    13.235986    3.987280   15.110023 H    623 MOH     0.0372 ****
4043 HC3    13.285638    4.617207   13.461758 H    623 MOH     0.0372 ****
4044 O1     11.391352    4.210183   14.253010 O    623 MOH    -0.6497 ****
4045 HO1    10.899449    4.471054   15.035777 H    623 MOH     0.4215 ****
4046 HC1    10.598650   12.371475   11.155175 H    624 MOH     0.0372 ****
4047 C1     10.194505   12.717261   10.204117 C    624 MOH     0.1166 ****
4048 HC2     9.261507   12.193887    9.991985 H    624 MOH     0.0372 ****
4049 HC3    10.915615   12.572333    9.400136 H    624 MOH     0.0372 ****
4050 O1      9.947976   14.083260   10.358266 O    624 MOH    -0.6497 ****
4051 HO1    10.772432   14.538865   10.546356 H    624 MOH     0.4215 ****
4052 HC1     6.366095    1.115661   16.358774 H    625 MOH     0.0372 ****
4053 C1      6.180188    1.701497   15.458627 C    625 MOH     0.1166 ****
4054 HC2     6.198086    1.077694   14.564844 H    625 MOH     0.0372 ****
4055 HC3     6.927857    2.486967   15.349733 H    625 MOH     0.0372 ****
4056 O1      4.937730    2.289783   15.588028 O    625 MOH    -0.6497 ****
4057 HO1     4.639240    2.400418   14.682224 H    625 MOH     0.4215 ****
4058 HC1     7.550818    4.690691   17.777937 H    626 MOH     0.0372 ****
4059 C1      8.304837    3.937065   17.550249 C    626 MOH     0.1166 ****
4060 HC2     7.818708    3.047492   17.150734 H    626 MOH     0.0372 ****
4061 HC3     8.793853    3.647617   18.480094 H    626 MOH     0.0372 ****
4062 O1      9.238990    4.479219   16.605554 O    626 MOH    -0.6497 ****
4063 HO1     9.455496    5.376957   16.865062 H    626 MOH     0.4215 ****
4064 HC1     3.487426   -1.938853   15.043555 H    627 MOH     0.0372 ****
4065 C1      3.080394   -0.938236   14.898598 C    627 MOH     0.1166 ****
4066 HC2     2.034813   -0.983960   14.593128 H    627 MOH     0.0372 ****
4067 HC3     3.636960   -0.480590   14.081890 H    627 MOH     0.0372 ****
4068 O1      3.235124   -0.114391   16.055425 O    627 MOH    -0.6497 ****
4069 HO1     3.518026    0.765792   15.795210 H    627 MOH     0.4215 ****
4070 HC1     2.893333    2.466555   17.265992 H    628 MOH     0.0372 ****
4071 C1      2.981668    3.452474   17.722076 C    628 MOH     0.1166 ****
4072 HC2     2.380646    3.484318   18.630001 H    628 MOH     0.0372 ****
4073 HC3     2.629484    4.187729   16.998706 H    628 MOH     0.0372 ****
4074 O1      4.321698    3.656190   18.029667 O    628 MOH    -0.6497 ****
4075 HO1     4.806672    3.189562   17.345895 H    628 MOH     0.4215 ****
4076 HC1    12.838191   14.258806    9.488525 H    629 MOH     0.0372 ****
4077 C1     13.258502   15.142256    9.969357 C    629 MOH     0.1166 ****
4078 HC2    13.511959   15.884043    9.212046 H    629 MOH     0.0372 ****
4079 HC3    14.145312   14.859340   10.535750 H    629 MOH     0.0372 ****
4080 O1     12.253336   15.638686   10.792429 O    629 MOH    -0.6497 ****
4081 HO1    12.609561   15.835053   11.661464 H    629 MOH     0.4215 ****
4082 HC1     7.189396   16.566634   22.064419 H    630 MOH     0.0372 ****
4083 C1      7.146672   17.440694   21.414587 C    630 MOH     0.1166 ****
4084 HC2     7.947457   18.140840   21.652882 H    630 MOH     0.0372 ****
4085 HC3     6.207323   17.956720   21.609749 H    630 MOH     0.0372 ****
4086 O1      7.147250   17.086334   20.023001 O    630 MOH    -0.6497 ****
4087 HO1     7.256369   17.878744   19.491964 H    630 MOH     0.4215 ****
4088 HC1     4.856901   -2.370779   18.079872 H    631 MOH     0.0372 ****
4089 C1      5.933082   -2.362614   17.910166 C    631 MOH     0.1166 ****
4090 HC2     6.353393   -1.502435   18.429890 H    631 MOH     0.0372 ****
4091 HC3     6.136887   -2.302194   16.841021 H    631 MOH     0.0372 ****
4092 O1      6.526598   -3.507343   18.410798 O    631 MOH    -0.6497 ****
4093 HO1     6.064718   -3.768621   19.209829 H    631 MOH     0.4215 ****
4094 HC1    12.297791    4.720493   22.592627 H    632 MOH     0.0372 ****
4095 C1     12.372847    5.762343   22.282915 C    632 MOH     0.1166 ****
4096 HC2    13.411500    5.986880   22.039670 H    632 MOH     0.0372 ****
4097 HC3    12.010848    6.363693   23.118008 H    632 MOH     0.0372 ****
4098 O1     11.484882    5.919927   21.206698 O    632 MOH    -0.6497 ****
4099 HO1    11.852077    5.399410   20.488985 H    632 MOH     0.4215 ****
4100 HC1     2.022689    0.807842   23.141342 H    633 MOH     0.0372 ****
4101 C1      3.015154    0.828663   22.690915 C    633 MOH     0.1166 ****
4102 HC2     3.538233    1.739873   22.980829 H    633 MOH     0.0372 ****
4103 HC3     2.955109    0.773141   21.604799 H    633 MOH     0.0372 ****
4104 O1      3.750121   -0.236049   23.139221 O    633 MOH    -0.6497 ****
4105 HO1     3.303252   -1.032133   22.843650 H    633 MOH     0.4215 ****
4106 HC1    -0.037297   13.037328   16.146642 H    634 MOH     0.0372 ****
4107 C1     -0.276897   12.404543   17.000827 C    634 MOH     0.1166 ****
4108 HC2    -1.322479   12.529059   17.281548 H    634 MOH     0.0372 ****
4109 HC3     0.355301   12.711954   17.834506 H    634 MOH     0.0372 ****
4110 O1      0.025057   11.054466   16.684750 O    634 MOH    -0.6497 ****
4111 HO1    -0.437401   10.781348   15.889255 H    634 MOH     0.4215 ****
4112 HC1    10.920234   13.193687    6.614135 H    635 MOH     0.0372 ****
4113 C1     11.663861   12.672762    6.011680 C    635 MOH     0.1166 ****
4114 HC2    12.579539   13.262272    5.963597 H    635 MOH     0.0372 ****
4115 HC3    11.327843   12.551512    4.981426 H    635 MOH     0.0372 ****
4116 O1     12.002188   11.443934    6.595751 O    635 MOH    -0.6497 ****
4117 HO1    11.298398   11.172449    7.189013 H    635 MOH     0.4215 ****
4118 HC1    11.636148    7.516586   11.273969 H    636 MOH     0.0372 ****
4119 C1     11.596888    6.446975   11.068908 C    636 MOH     0.1166 ****
4120 HC2    10.818620    6.018723   11.700355 H    636 MOH     0.0372 ****
4121 HC3    12.565682    6.010558   11.312860 H    636 MOH     0.0372 ****
4122 O1     11.308213    6.155078    9.700657 O    636 MOH    -0.6497 ****
4123 HO1    11.737762    5.340623    9.428420 H    636 MOH     0.4215 ****
4124 HC1    15.797689    6.196719    9.027491 H    637 MOH     0.0372 ****
4125 C1     15.275187    7.125892    9.255179 C    637 MOH     0.1166 ****
4126 HC2    14.242885    6.912787    9.533779 H    637 MOH     0.0372 ****
4127 HC3    15.315601    7.772149    8.379074 H    637 MOH     0.0372 ****
4128 O1     15.962811    7.689275   10.321496 O    637 MOH    -0.6497 ****
4129 HO1    16.425269    6.974024   10.764145 H    637 MOH     0.4215 ****
4130 HC1     9.197998    1.410825   18.667478 H    638 MOH     0.0372 ****
4131 C1      9.449145    0.890308   19.591666 C    638 MOH     0.1166 ****
4132 HC2     8.782306    0.036661   19.712582 H    638 MOH     0.0372 ****
4133 HC3     9.326170    1.560243   20.442316 H    638 MOH     0.0372 ****
4134 O1     10.789175    0.459606   19.494793 O    638 MOH    -0.6497 ****
4135 HO1    10.979123   -0.096020   20.253518 H    638 MOH     0.4215 ****
4136 HC1     0.724228    7.639060   17.888246 H    639 MOH     0.0372 ****
4137 C1     -0.285558    8.038327   17.980170 C    639 MOH     0.1166 ****
4138 HC2    -0.898126    7.296948   18.493529 H    639 MOH     0.0372 ****
4139 HC3    -0.686816    8.230204   16.984563 H    639 MOH     0.0372 ****
4140 O1     -0.217430    9.227146   18.742431 O    639 MOH    -0.6497 ****
4141 HO1     0.116856    9.920352   18.168260 H    639 MOH     0.4215 ****
4142 HC1    13.182292    0.982980   13.611664 H    640 MOH     0.0372 ****
4143 C1     14.053514    1.486350   13.192350 C    640 MOH     0.1166 ****
4144 HC2    13.755601    2.435528   12.748994 H    640 MOH     0.0372 ****
4145 HC3    14.492300    0.874795   12.403219 H    640 MOH     0.0372 ****
4146 O1     15.022307    1.761510   14.178057 O    640 MOH    -0.6497 ****
4147 HO1    15.452433    0.923376   14.361197 H    640 MOH     0.4215 ****
4148 HC1    -3.531998   14.875261   16.312105 H    641 MOH     0.0372 ****
4149 C1     -2.669437   15.338215   15.832686 C    641 MOH     0.1166 ****
4150 HC2    -1.882508   15.452933   16.578684 H    641 MOH     0.0372 ****
4151 HC3    -2.986402   16.330258   15.510246 H    641 MOH     0.0372 ****
4152 O1     -2.286654   14.550704   14.673738 O    641 MOH    -0.6497 ****
4153 HO1    -2.980629   14.596836   14.012594 H    641 MOH     0.4215 ****
4154 HC1     3.154295   10.312679   22.572828 H    642 MOH     0.0372 ****
4155 C1      3.762245   11.183472   22.324634 C    642 MOH     0.1166 ****
4156 HC2     4.811868   10.914028   22.210083 H    642 MOH     0.0372 ****
4157 HC3     3.705665   11.905663   23.139928 H    642 MOH     0.0372 ****
4158 O1      3.367338   11.745630   21.114774 O    642 MOH    -0.6497 ****
4159 HO1     3.649084   11.147138   20.418981 H    642 MOH     0.4215 ****
4160 HC1     8.734963   16.562552   11.884909 H    643 MOH     0.0372 ****
4161 C1      7.719981   16.179206   11.780965 C    643 MOH     0.1166 ****
4162 HC2     6.998871   16.996520   11.802178 H    643 MOH     0.0372 ****
4163 HC3     7.485000   15.484368   12.587066 H    643 MOH     0.0372 ****
4164 O1      7.592387   15.467221   10.598682 O    643 MOH    -0.6497 ****
4165 HO1     8.312920   14.834028   10.566862 H    643 MOH     0.4215 ****
4166 HC1     2.213792    2.568617   12.774450 H    644 MOH     0.0372 ****
4167 C1      3.070580    2.310604   12.150782 C    644 MOH     0.1166 ****
4168 HC2     3.256486    3.103830   11.427411 H    644 MOH     0.0372 ****
4169 HC3     2.824628    1.406742   11.593581 H    644 MOH     0.0372 ****
4170 O1      4.233940    2.119952   12.951934 O    644 MOH    -0.6497 ****
4171 HO1     4.930225    1.772124   12.390491 H    644 MOH     0.4215 ****
4172 HC1     8.268464    2.228546   11.957741 H    645 MOH     0.0372 ****
4173 C1      7.770211    1.452874   11.377914 C    645 MOH     0.1166 ****
4174 HC2     8.497095    0.707413   11.055473 H    645 MOH     0.0372 ****
4175 HC3     7.307753    1.926850   10.511708 H    645 MOH     0.0372 ****
4176 O1      6.795066    0.822130   12.174823 O    645 MOH    -0.6497 ****
4177 HO1     7.266761    0.453074   12.924356 H    645 MOH     0.4215 ****
4178 HC1    11.609013    8.280419   19.144775 H    646 MOH     0.0372 ****
4179 C1     10.986629    9.174891   19.135582 C    646 MOH     0.1166 ****
4180 HC2    11.430611    9.961993   19.745108 H    646 MOH     0.0372 ****
4181 HC3    10.014949    8.896873   19.544997 H    646 MOH     0.0372 ****
4182 O1     10.807073    9.627638   17.814000 O    646 MOH    -0.6497 ****
4183 HO1    11.664438    9.903205   17.480952 H    646 MOH     0.4215 ****
4184 HC1     7.592964   13.927309    7.664189 H    647 MOH     0.0372 ****
4185 C1      8.185903   13.588871    6.814954 C    647 MOH     0.1166 ****
4186 HC2     8.553098   12.593153    7.063148 H    647 MOH     0.0372 ****
4187 HC3     9.032876   14.258806    6.662926 H    647 MOH     0.0372 ****
4188 O1      7.381654   13.537840    5.644692 O    647 MOH    -0.6497 ****
4189 HO1     7.788686   12.887500    5.066986 H    647 MOH     0.4215 ****
4190 HC1     7.237894    8.460048   16.985271 H    648 MOH     0.0372 ****
4191 C1      7.691691    9.339415   17.442062 C    648 MOH     0.1166 ****
4192 HC2     8.528849    9.656215   16.819808 H    648 MOH     0.0372 ****
4193 HC3     7.995377    9.090383   18.458881 H    648 MOH     0.0372 ****
4194 O1      6.741373   10.337173   17.406706 O    648 MOH    -0.6497 ****
4195 HO1     6.413438   10.392695   16.505852 H    648 MOH     0.4215 ****
4196 HC1    -0.929303   19.932641   14.656061 H    649 MOH     0.0372 ****
4197 C1     -1.836898   19.868955   15.255687 C    649 MOH     0.1166 ****
4198 HC2    -2.447734   19.022248   14.943146 H    649 MOH     0.0372 ****
4199 HC3    -2.385958   20.800985   15.123458 H    649 MOH     0.0372 ****
4200 O1     -1.465084   19.685651   16.580098 O    649 MOH    -0.6497 ****
4201 HO1    -0.937963   18.883035   16.578684 H    649 MOH     0.4215 ****
4202 HC1    14.600842   11.779106   22.362111 H    650 MOH     0.0372 ****
4203 C1     14.347962   12.643776   22.975879 C    650 MOH     0.1166 ****
4204 HC2    15.155675   12.827080   23.683693 H    650 MOH     0.0372 ****
4205 HC3    13.429975   12.411075   23.514695 H    650 MOH     0.0372 ****
4206 O1     14.155705   13.752170   22.119573 O    650 MOH    -0.6497 ****
4207 HO1    13.470390   13.481094   21.504390 H    650 MOH     0.4215 ****
4208 HC1    10.860189    4.519635   18.827991 H    651 MOH     0.0372 ****
4209 C1     11.682913    3.828879   18.642729 C    651 MOH     0.1166 ****
4210 HC2    11.958310    3.950129   17.595504 H    651 MOH     0.0372 ****
4211 HC3    11.374608    2.789071   18.749502 H    651 MOH     0.0372 ****
4212 O1     12.772951    4.139556   19.527320 O    651 MOH    -0.6497 ****
4213 HO1    13.383787    3.398994   19.540047 H    651 MOH     0.4215 ****
4214 HC1    15.694343    5.477386   17.763088 H    652 MOH     0.0372 ****
4215 C1     14.862959    6.160793   17.593383 C    652 MOH     0.1166 ****
4216 HC2    13.940930    5.700698   17.950471 H    652 MOH     0.0372 ****
4217 HC3    14.792522    6.348996   16.522116 H    652 MOH     0.0372 ****
4218 O1     15.190894    7.381456   18.245335 O    652 MOH    -0.6497 ****
4219 HO1    15.804040    7.184272   18.957391 H    652 MOH     0.4215 ****
4220 HC1     8.200914    7.706830   26.246248 H    653 MOH     0.0372 ****
4221 C1      7.309485    8.333491   26.214428 C    653 MOH     0.1166 ****
4222 HC2     6.420943    7.702747   26.174123 H    653 MOH     0.0372 ****
4223 HC3     7.318723    8.951579   25.316403 H    653 MOH     0.0372 ****
4224 O1      7.319877    9.181014   27.335900 O    653 MOH    -0.6497 ****
4225 HO1     8.075629    9.761135   27.219227 H    653 MOH     0.4215 ****
4226 HC1    15.454165    8.303689   13.785612 H    654 MOH     0.0372 ****
4227 C1     14.444380    7.982806   13.529640 C    654 MOH     0.1166 ****
4228 HC2    13.746941    8.413507   14.248767 H    654 MOH     0.0372 ****
4229 HC3    14.362973    6.896457   13.564288 H    654 MOH     0.0372 ****
4230 O1     14.089309    8.442085   12.257555 O    654 MOH    -0.6497 ****
4231 HO1    14.688022    8.034653   11.628230 H    654 MOH     0.4215 ****
4232 HC1     9.857909    8.968725   24.832742 H    655 MOH     0.0372 ****
4233 C1     10.082498   10.034661   24.882946 C    655 MOH     0.1166 ****
4234 HC2     9.723387   10.582531   24.011791 H    655 MOH     0.0372 ****
4235 HC3    11.168494   10.081202   24.810821 H    655 MOH     0.0372 ****
4236 O1      9.721655   10.632745   26.149374 O    655 MOH    -0.6497 ****
4237 HO1     9.649486   11.581514   26.023509 H    655 MOH     0.4215 ****
4238 HC1     8.944541   -4.482240   16.200382 H    656 MOH     0.0372 ****
4239 C1      9.525933   -3.724939   16.727177 C    656 MOH     0.1166 ****
4240 HC2    10.579597   -3.969071   16.589998 H    656 MOH     0.0372 ****
4241 HC3     9.296147   -3.714324   17.792080 H    656 MOH     0.0372 ****
4242 O1      9.397761   -2.464676   16.174926 O    656 MOH    -0.6497 ****
4243 HO1    10.196237   -1.988251   16.416050 H    656 MOH     0.4215 ****
4244 HC1     4.099995    6.874820   21.282358 H    657 MOH     0.0372 ****
4245 C1      4.445250    6.031787   20.684853 C    657 MOH     0.1166 ****
4246 HC2     5.185414    5.499839   21.283773 H    657 MOH     0.0372 ****
4247 HC3     4.886923    6.417582   19.766322 H    657 MOH     0.0372 ****
4248 O1      3.392741    5.114045   20.351099 O    657 MOH    -0.6497 ****
4249 HO1     3.671601    4.600877   19.589545 H    657 MOH     0.4215 ****
4250 HC1    11.257406   15.412108   15.059819 H    658 MOH     0.0372 ****
4251 C1     10.764927   15.848525   14.190785 C    658 MOH     0.1166 ****
4252 HC2     9.822691   16.335974   14.441100 H    658 MOH     0.0372 ****
4253 HC3    10.512625   15.014066   13.536004 H    658 MOH     0.0372 ****
4254 O1     11.602662   16.773616   13.490749 O    658 MOH    -0.6497 ****
4255 HO1    11.061685   17.473354   13.118811 H    658 MOH     0.4215 ****
4256 HC1     9.165089   -4.804756   11.537720 H    659 MOH     0.0372 ****
4257 C1      9.132180   -3.719632   11.438725 C    659 MOH     0.1166 ****
4258 HC2     9.577317   -3.250554   12.316245 H    659 MOH     0.0372 ****
4259 HC3     8.094682   -3.393850   11.363772 H    659 MOH     0.0372 ****
4260 O1      9.818072   -3.342410   10.273413 O    659 MOH    -0.6497 ****
4261 HO1     9.919686   -2.389151   10.313718 H    659 MOH     0.4215 ****
4262 HC1    17.598444    4.012183   12.720710 H    660 MOH     0.0372 ****
4263 C1     16.692582    4.336740   12.209471 C    660 MOH     0.1166 ****
4264 HC2    15.806926    3.944005   12.708689 H    660 MOH     0.0372 ****
4265 HC3    16.700087    3.988504   11.176388 H    660 MOH     0.0372 ****
4266 O1     16.599628    5.728867   12.223614 O    660 MOH    -0.6497 ****
4267 HO1    16.869828    6.014232   13.099719 H    660 MOH     0.4215 ****
4268 HC1    10.132728    8.575990   14.705558 H    661 MOH     0.0372 ****
4269 C1     10.796103    7.754186   14.974966 C    661 MOH     0.1166 ****
4270 HC2    11.812240    8.140389   15.052748 H    661 MOH     0.0372 ****
4271 HC3    10.782247    6.971575   14.216240 H    661 MOH     0.0372 ****
4272 O1     10.417939    7.327159   16.261900 O    661 MOH    -0.6497 ****
4273 HO1    10.471633    8.096299   16.833243 H    661 MOH     0.4215 ****
4274 HC1    13.912640   14.775241   18.808899 H    662 MOH     0.0372 ****
4275 C1     13.573158   14.029371   18.089771 C    662 MOH     0.1166 ****
4276 HC2    13.066822   13.192054   18.571311 H    662 MOH     0.0372 ****
4277 HC3    14.459968   13.632554   17.594797 H    662 MOH     0.0372 ****
4278 O1     12.731959   14.649908   17.135177 O    662 MOH    -0.6497 ****
4279 HO1    13.261389   15.334949   16.719398 H    662 MOH     0.4215 ****
4280 HC1    11.057643   16.986313   20.739300 H    663 MOH     0.0372 ****
4281 C1     10.745874   16.567451   21.696723 C    663 MOH     0.1166 ****
4282 HC2    10.218753   17.313728   22.289279 H    663 MOH     0.0372 ****
4283 HC3    11.638457   16.233912   22.224932 H    663 MOH     0.0372 ****
4284 O1      9.931233   15.453341   21.469742 O    663 MOH    -0.6497 ****
4285 HO1     9.245341   15.694616   20.843952 H    663 MOH     0.4215 ****
4286 HC1     3.737419   22.380498   13.019816 H    664 MOH     0.0372 ****
4287 C1      2.829824   22.760169   12.550297 C    664 MOH     0.1166 ****
4288 HC2     2.960306   22.740165   11.467716 H    664 MOH     0.0372 ****
4289 HC3     2.686642   23.790996   12.872030 H    664 MOH     0.0372 ****
4290 O1      1.689558   21.966942   12.924356 O    664 MOH    -0.6497 ****
4291 HO1     0.916486   22.471946   12.662020 H    664 MOH     0.4215 ****
4292 HC1    -3.380732    2.203643   13.024765 H    665 MOH     0.0372 ****
4293 C1     -2.736987    2.987888   12.628079 C    665 MOH     0.1166 ****
4294 HC2    -2.702923    3.789279   13.365591 H    665 MOH     0.0372 ****
4295 HC3    -3.135936    3.427979   11.713082 H    665 MOH     0.0372 ****
4296 O1     -1.425247    2.523301   12.397562 O    665 MOH    -0.6497 ****
4297 HO1    -0.982997    3.310404   12.072293 H    665 MOH     0.4215 ****
4298 HC1     5.894977   13.910571   19.531562 H    666 MOH     0.0372 ****
4299 C1      6.476946   14.153070   18.642022 C    666 MOH     0.1166 ****
4300 HC2     6.440573   13.331266   17.927137 H    666 MOH     0.0372 ****
4301 HC3     7.504052   14.296365   18.979312 H    666 MOH     0.0372 ****
4302 O1      6.011024   15.397411   18.110277 O    666 MOH    -0.6497 ****
4303 HO1     6.426717   16.074695   18.648386 H    666 MOH     0.4215 ****
4304 HC1     3.389277    9.344314   17.203059 H    667 MOH     0.0372 ****
4305 C1      3.552090    9.120185   18.257356 C    667 MOH     0.1166 ****
4306 HC2     4.119625    8.193462   18.349280 H    667 MOH     0.0372 ****
4307 HC3     2.568285    9.002610   18.711318 H    667 MOH     0.0372 ****
4308 O1      4.244910   10.196736   18.849204 O    667 MOH    -0.6497 ****
4309 HO1     5.083223   10.287367   18.390999 H    667 MOH     0.4215 ****
4310 HC1     5.298574   -0.035191    6.824853 H    668 MOH     0.0372 ****
4311 C1      4.561875    0.310595    7.549638 C    668 MOH     0.1166 ****
4312 HC2     4.291098   -0.497328    8.230582 H    668 MOH     0.0372 ****
4313 HC3     3.653126    0.610250    7.029207 H    668 MOH     0.0372 ****
4314 O1      5.001816    1.392045    8.343719 O    668 MOH    -0.6497 ****
4315 HO1     5.949248    1.323459    8.479483 H    668 MOH     0.4215 ****
4316 HC1     6.247161   16.520094    7.176992 H    669 MOH     0.0372 ****
4317 C1      5.399611   15.855466    7.346698 C    669 MOH     0.1166 ****
4318 HC2     4.534163   16.499273    7.502969 H    669 MOH     0.0372 ****
4319 HC3     5.632283   15.253708    8.224925 H    669 MOH     0.0372 ****
4320 O1      5.266243   15.153687    6.131181 O    669 MOH    -0.6497 ****
4321 HO1     6.112061   14.747888    5.926120 H    669 MOH     0.4215 ****
4322 HC1     4.135791   -2.285864   12.587066 H    670 MOH     0.0372 ****
4323 C1      5.170980   -1.981719   12.430796 C    670 MOH     0.1166 ****
4324 HC2     5.759877   -2.884356   12.263212 H    670 MOH     0.0372 ****
4325 HC3     5.543948   -1.424868   13.289223 H    670 MOH     0.0372 ****
4326 O1      5.168670   -1.250138   11.254170 O    670 MOH    -0.6497 ****
4327 HO1     5.806065   -0.541011   11.363772 H    670 MOH     0.4215 ****
4328 HC1    17.198341    2.906238   17.157805 H    671 MOH     0.0372 ****
4329 C1     17.582279    3.503097   16.330490 C    671 MOH     0.1166 ****
4330 HC2    18.269903    2.885826   15.752076 H    671 MOH     0.0372 ****
4331 HC3    18.083419    4.364909   16.772432 H    671 MOH     0.0372 ****
4332 O1     16.517067    3.942780   15.543480 O    671 MOH    -0.6497 ****
4333 HO1    15.987637    3.186705   15.281850 H    671 MOH     0.4215 ****
4334 HC1     7.664556   11.902397   21.758241 H    672 MOH     0.0372 ****
4335 C1      7.728064   10.979348   21.181949 C    672 MOH     0.1166 ****
4336 HC2     8.759789   10.775224   20.896278 H    672 MOH     0.0372 ****
4337 HC3     7.110877   11.091208   20.290995 H    672 MOH     0.0372 ****
4338 O1      7.210181    9.926067   21.947039 O    672 MOH    -0.6497 ****
4339 HO1     7.460174    9.101406   21.522775 H    672 MOH     0.4215 ****
4340 HC1    -4.386477   11.210008   13.275788 H    673 MOH     0.0372 ****
4341 C1     -4.552753   12.280435   13.394582 C    673 MOH     0.1166 ****
4342 HC2    -4.199415   12.601318   14.374632 H    673 MOH     0.0372 ****
4343 HC3    -5.619697   12.493541   13.322457 H    673 MOH     0.0372 ****
4344 O1     -3.865707   12.994870   12.384834 O    673 MOH    -0.6497 ****
4345 HO1    -3.956351   12.464963   11.590046 H    673 MOH     0.4215 ****
4346 HC1     2.276723   17.526018   10.426855 H    674 MOH     0.0372 ****
4347 C1      3.147945   16.870779   10.407763 C    674 MOH     0.1166 ****
4348 HC2     3.147367   16.299231    9.480039 H    674 MOH     0.0372 ****
4349 HC3     3.120232   16.161652   11.235785 H    674 MOH     0.0372 ****
4350 O1      4.326316   17.655432   10.481302 O    674 MOH    -0.6497 ****
4351 HO1     4.296872   18.166151   11.293768 H    674 MOH     0.4215 ****
4352 HC1    17.090376    8.362885   15.893498 H    675 MOH     0.0372 ****
4353 C1     17.730658    7.487600   16.002392 C    675 MOH     0.1166 ****
4354 HC2    17.580546    7.086701   17.005070 H    675 MOH     0.0372 ****
4355 HC3    18.769311    7.800319   15.896326 H    675 MOH     0.0372 ****
4356 O1     17.351338    6.545772   14.999008 O    675 MOH    -0.6497 ****
4357 HO1    17.280324    5.672528   15.391452 H    675 MOH     0.4215 ****
4358 HC1    -1.908489   10.760935   12.951933 H    676 MOH     0.0372 ****
4359 C1     -1.641176    9.756236   13.280738 C    676 MOH     0.1166 ****
4360 HC2    -0.696631    9.466788   12.820412 H    676 MOH     0.0372 ****
4361 HC3    -2.403856    9.042618   12.971025 H    676 MOH     0.0372 ****
4362 O1     -1.473744    9.763993   14.709801 O    676 MOH    -0.6497 ****
4363 HO1    -2.302242    9.951787   15.156692 H    676 MOH     0.4215 ****
4364 HC1    15.226112   10.576407   20.314329 H    677 MOH     0.0372 ****
4365 C1     16.084632   10.938115   19.748644 C    677 MOH     0.1166 ****
4366 HC2    15.736490   11.457407   18.856275 H    677 MOH     0.0372 ****
4367 HC3    16.713944   10.097532   19.455195 H    677 MOH     0.0372 ****
4368 O1     16.834033   11.827688   20.544139 O    677 MOH    -0.6497 ****
4369 HO1    17.001464   11.409233   21.391960 H    677 MOH     0.4215 ****
4370 HC1    16.025165   11.897498   10.382308 H    678 MOH     0.0372 ****
4371 C1     15.578296   12.311462    9.478625 C    678 MOH     0.1166 ****
4372 HC2    14.550612   12.630304    9.650452 H    678 MOH     0.0372 ****
4373 HC3    15.608895   11.539056    8.709293 H    678 MOH     0.0372 ****
4374 O1     16.388896   13.375765    9.090423 O    678 MOH    -0.6497 ****
4375 HO1    16.570761   13.922002    9.858341 H    678 MOH     0.4215 ****
4376 HC1     9.251114    9.645192    4.976476 H    679 MOH     0.0372 ****
4377 C1      8.326776   10.160402    4.714847 C    679 MOH     0.1166 ****
4378 HC2     7.613749   10.113453    5.538626 H    679 MOH     0.0372 ****
4379 HC3     7.890877    9.714186    3.821771 H    679 MOH     0.0372 ****
4380 O1      8.564645   11.509662    4.435539 O    679 MOH    -0.6497 ****
4381 HO1     9.069249   11.539873    3.619538 H    679 MOH     0.4215 ****
4382 HC1     0.973066   16.838527   15.028706 H    680 MOH     0.0372 ****
4383 C1      0.602407   16.441710   15.973401 C    680 MOH     0.1166 ****
4384 HC2     1.456886   16.318827   16.638788 H    680 MOH     0.0372 ****
4385 HC3     0.130712   15.465997   15.857435 H    680 MOH     0.0372 ****
4386 O1     -0.252649   17.377007   16.535551 O    680 MOH    -0.6497 ****
4387 HO1    -0.067897   17.378640   17.477417 H    680 MOH     0.4215 ****
4388 HC1     0.857018    3.783972   27.180336 H    681 MOH     0.0372 ****
4389 C1      1.751334    3.341431   27.620157 C    681 MOH     0.1166 ****
4390 HC2     1.817152    3.614549   28.673039 H    681 MOH     0.0372 ****
4391 HC3     2.641608    3.711304   27.111040 H    681 MOH     0.0372 ****
4392 O1      1.699950    1.928892   27.504191 O    681 MOH    -0.6497 ****
4393 HO1     2.605235    1.620664   27.592579 H    681 MOH     0.4215 ****
4394 HC1    -0.489362   -0.574487    5.515999 H    682 MOH     0.0372 ****
4395 C1      0.024480   -0.265443    6.426045 C    682 MOH     0.1166 ****
4396 HC2     1.107589   -0.291571    6.310080 H    682 MOH     0.0372 ****
4397 HC3    -0.278629   -0.904760    7.256188 H    682 MOH     0.0372 ****
4398 O1     -0.414884    0.991962    6.708888 O    682 MOH    -0.6497 ****
4399 HO1    -0.746860    1.354078    5.883694 H    682 MOH     0.4215 ****
4400 HC1     0.261193   12.163676   20.766878 H    683 MOH     0.0372 ****
4401 C1      0.194798   11.903214   21.823295 C    683 MOH     0.1166 ****
4402 HC2     0.302762   10.825030   21.947039 H    683 MOH     0.0372 ****
4403 HC3    -0.789007   12.217973   22.171899 H    683 MOH     0.0372 ****
4404 O1      1.178603   12.622139   22.546665 O    683 MOH    -0.6497 ****
4405 HO1     2.001327   12.513137   22.063711 H    683 MOH     0.4215 ****
4406 HC1     7.807738   14.724618   25.615509 H    684 MOH     0.0372 ****
4407 C1      8.245370   13.821164   25.190538 C    684 MOH     0.1166 ****
4408 HC2     8.489012   14.016307   24.146848 H    684 MOH     0.0372 ****
4409 HC3     7.539848   12.994870   25.283876 H    684 MOH     0.0372 ****
4410 O1      9.381595   13.523551   25.937950 O    684 MOH    -0.6497 ****
4411 HO1    10.009175   14.249417   25.889866 H    684 MOH     0.4215 ****
4412 HC1     4.587856    7.526792   24.982648 H    685 MOH     0.0372 ****
4413 C1      4.177360    6.570267   25.305796 C    685 MOH     0.1166 ****
4414 HC2     4.956205    5.807659   25.327009 H    685 MOH     0.0372 ****
4415 HC3     3.392164    6.291433   24.603639 H    685 MOH     0.0372 ****
4416 O1      3.581534    6.714786   26.561618 O    685 MOH    -0.6497 ****
4417 HO1     4.202186    7.163860   27.140031 H    685 MOH     0.4215 ****
4418 HC1     0.970757   18.252291   11.953499 H    686 MOH     0.0372 ****
4419 C1      1.537137   18.557253   12.833847 C    686 MOH     0.1166 ****
4420 HC2     1.922807   17.663597   13.325286 H    686 MOH     0.0372 ****
4421 HC3     0.882999   19.081035   13.530347 H    686 MOH     0.0372 ****
4422 O1      2.631793   19.371708   12.428674 O    686 MOH    -0.6497 ****
4423 HO1     2.280764   20.246992   12.251898 H    686 MOH     0.4215 ****
4424 HC1    -7.112724    8.847475   11.350337 H    687 MOH     0.0372 ****
4425 C1     -6.553849    9.479852   12.039766 C    687 MOH     0.1166 ****
4426 HC2    -6.508816   10.480469   11.609138 H    687 MOH     0.0372 ****
4427 HC3    -5.540600    9.085484   12.120376 H    687 MOH     0.0372 ****
4428 O1     -7.218957    9.492099   13.328114 O    687 MOH    -0.6497 ****
4429 HO1    -6.751881    8.874012   13.893800 H    687 MOH     0.4215 ****
4430 HC1     1.362200    2.634345    9.249522 H    688 MOH     0.0372 ****
4431 C1      0.480009    3.217731    9.510445 C    688 MOH     0.1166 ****
4432 HC2     0.784273    4.216307    9.821572 H    688 MOH     0.0372 ****
4433 HC3    -0.055195    2.727833   10.323618 H    688 MOH     0.0372 ****
4434 O1     -0.340983    3.272845    8.343011 O    688 MOH    -0.6497 ****
4435 HO1    -0.431627    2.384088    7.990165 H    688 MOH     0.4215 ****
4436 HC1     8.898930   -6.358140   14.700609 H    689 MOH     0.0372 ****
4437 C1      9.736666   -6.129930   14.040878 C    689 MOH     0.1166 ****
4438 HC2    10.094046   -5.128497   14.276345 H    689 MOH     0.0372 ****
4439 HC3     9.386214   -6.174837   13.009916 H    689 MOH     0.0372 ****
4440 O1     10.817465   -7.071758   14.245232 O    689 MOH    -0.6497 ****
4441 HO1    11.650582   -6.683514   13.967339 H    689 MOH     0.4215 ****
4442 HC1     3.092519    4.497182   14.315942 H    690 MOH     0.0372 ****
4443 C1      2.780750    5.540664   14.280587 C    690 MOH     0.1166 ****
4444 HC2     3.586731    6.197944   14.608685 H    690 MOH     0.0372 ****
4445 HC3     1.937818    5.663955   14.959410 H    690 MOH     0.0372 ****
4446 O1      2.327530    5.886859   12.986582 O    690 MOH    -0.6497 ****
4447 HO1     2.116220    6.822564   13.016280 H    690 MOH     0.4215 ****
4448 HC1     9.788627   12.510687   21.813396 H    691 MOH     0.0372 ****
4449 C1     10.714120   12.810342   22.306956 C    691 MOH     0.1166 ****
4450 HC2    11.158102   11.956286   22.818902 H    691 MOH     0.0372 ****
4451 HC3    10.468168   13.562335   23.056489 H    691 MOH     0.0372 ****
4452 O1     11.596311   13.309629   21.280944 O    691 MOH    -0.6497 ****
4453 HO1    11.405785   14.247784   21.205991 H    691 MOH     0.4215 ****
4454 HC1    -1.182183    3.668029   15.132651 H    692 MOH     0.0372 ****
4455 C1     -0.410843    3.374907   15.845414 C    692 MOH     0.1166 ****
4456 HC2     0.486937    3.118527   15.282557 H    692 MOH     0.0372 ****
4457 HC3    -0.741087    2.486559   16.384230 H    692 MOH     0.0372 ****
4458 O1     -0.150458    4.452274   16.754047 O    692 MOH    -0.6497 ****
4459 HO1    -0.816720    4.427371   17.444890 H    692 MOH     0.4215 ****
4460 HC1    -1.311509    4.278769   21.015779 H    693 MOH     0.0372 ****
4461 C1     -0.828267    4.128125   20.050578 C    693 MOH     0.1166 ****
4462 HC2    -0.372738    3.138531   20.030779 H    693 MOH     0.0372 ****
4463 HC3    -0.067897    4.897265   19.911986 H    693 MOH     0.0372 ****
4464 O1     -1.859414    4.177523   19.064164 O    693 MOH    -0.6497 ****
4465 HO1    -2.372101    4.978506   19.194272 H    693 MOH     0.4215 ****
4466 HC1    -5.611614    5.706413   14.682224 H    694 MOH     0.0372 ****
4467 C1     -5.023871    6.622114   14.743742 C    694 MOH     0.1166 ****
4468 HC2    -4.557950    6.832770   13.780663 H    694 MOH     0.0372 ****
4469 HC3    -4.235211    6.473512   15.480547 H    694 MOH     0.0372 ****
4470 O1     -5.805604    7.746838   15.119216 O    694 MOH    -0.6497 ****
4471 HO1    -6.205707    7.582722   15.976229 H    694 MOH     0.4215 ****
4472 HC1     8.205533   16.379656   17.161340 H    695 MOH     0.0372 ****
4473 C1      9.151233   16.722585   17.581362 C    695 MOH     0.1166 ****
4474 HC2     9.037495   17.697074   18.057244 H    695 MOH     0.0372 ****
4475 HC3     9.881003   16.836078   16.779502 H    695 MOH     0.0372 ****
4476 O1      9.592905   15.800352   18.553633 O    695 MOH    -0.6497 ****
4477 HO1    10.424290   15.412108   18.271498 H    695 MOH     0.4215 ****
4478 HC1    13.023405   31.054794   12.503628 H    696 MOH     0.0372 ****
4479 C1     11.987062   31.193599   12.810512 C    696 MOH     0.1166 ****
4480 HC2    11.423568   31.557756   11.952084 H    696 MOH     0.0372 ****
4481 HC3    11.917202   31.943551   13.598936 H    696 MOH     0.0372 ****
4482 O1     11.461673   29.950891   13.227705 O    696 MOH    -0.6497 ****
4483 HO1    10.698993   30.103168   13.789855 H    696 MOH     0.4215 ****
4484 HC1     7.521835   20.513824   16.594948 H    697 MOH     0.0372 ****
4485 C1      6.721050   20.119864   17.220737 C    697 MOH     0.1166 ****
4486 HC2     6.155247   19.389508   16.641617 H    697 MOH     0.0372 ****
4487 HC3     6.048437   20.896760   17.582069 H    697 MOH     0.0372 ****
4488 O1      7.218148   19.378893   18.265134 O    697 MOH    -0.6497 ****
4489 HO1     7.762590   19.974936   18.784150 H    697 MOH     0.4215 ****
4490 HC1    19.252437   15.648320    7.688231 H    698 MOH     0.0372 ****
4491 C1     19.065376   14.662401    8.113202 C    698 MOH     0.1166 ****
4492 HC2    18.673355   14.757114    9.125779 H    698 MOH     0.0372 ****
4493 HC3    20.022623   14.145967    8.181791 H    698 MOH     0.0372 ****
4494 O1     18.224177   13.858560    7.263967 O    698 MOH    -0.6497 ****
4495 HO1    17.508262   13.512365    7.801368 H    698 MOH     0.4215 ****
4496 HC1    21.882845   16.120255   14.325135 H    699 MOH     0.0372 ****
4497 C1     21.034140   16.555040   14.853344 C    699 MOH     0.1166 ****
4498 HC2    20.897886   17.582193   14.515347 H    699 MOH     0.0372 ****
4499 HC3    21.198685   16.542792   15.930974 H    699 MOH     0.0372 ****
4500 O1     19.868470   15.856935   14.519589 O    699 MOH    -0.6497 ****
4501 HO1    19.895606   15.056360   15.049212 H    699 MOH     0.4215 ****
4502 HC1    20.777220   23.196015    4.711311 H    700 MOH     0.0372 ****
4503 C1     19.985095   22.663659    5.237399 C    700 MOH     0.1166 ****
4504 HC2    20.012230   22.921264    6.295937 H    700 MOH     0.0372 ****
4505 HC3    20.150795   21.596090    5.095270 H    700 MOH     0.0372 ****
4506 O1     18.756494   23.079256    4.681613 O    700 MOH    -0.6497 ****
4507 HO1    18.061941   22.720405    5.239520 H    700 MOH     0.4215 ****
4508 HC1    15.932096   28.230124    6.660804 H    701 MOH     0.0372 ****
4509 C1     15.977707   27.775336    5.670855 C    701 MOH     0.1166 ****
4510 HC2    16.895116   27.196440    5.561960 H    701 MOH     0.0372 ****
4511 HC3    15.967314   28.553049    4.907887 H    701 MOH     0.0372 ****
4512 O1     14.874390   26.938835    5.453773 O    701 MOH    -0.6497 ****
4513 HO1    15.133621   26.051303    5.711160 H    701 MOH     0.4215 ****
4514 HC1    24.039249   23.673257    5.156081 H    702 MOH     0.0372 ****
4515 C1     24.237857   24.633865    5.630550 C    702 MOH     0.1166 ****
4516 HC2    25.302491   24.851053    5.547111 H    702 MOH     0.0372 ****
4517 HC3    24.008649   24.598756    6.695453 H    702 MOH     0.0372 ****
4518 O1     23.444578   25.629583    4.979305 O    702 MOH    -0.6497 ****
4519 HO1    23.491921   26.405663    5.542869 H    702 MOH     0.4215 ****
4520 HC1     6.733751   27.068658   17.761674 H    703 MOH     0.0372 ****
4521 C1      7.774137   27.096011   17.435697 C    703 MOH     0.1166 ****
4522 HC2     8.358415   26.456286   18.098257 H    703 MOH     0.0372 ****
4523 HC3     8.115351   28.129695   17.489438 H    703 MOH     0.0372 ****
4524 O1      7.841109   26.613869   16.112701 O    703 MOH    -0.6497 ****
4525 HO1     7.246439   25.861060   16.068860 H    703 MOH     0.4215 ****
4526 HC1     9.614152   22.386458   13.601765 H    704 MOH     0.0372 ****
4527 C1     10.528675   22.692645   13.094062 C    704 MOH     0.1166 ****
4528 HC2    11.123923   23.347067   13.731165 H    704 MOH     0.0372 ****
4529 HC3    10.253279   23.238881   12.191794 H    704 MOH     0.0372 ****
4530 O1     11.230733   21.553224   12.695961 O    704 MOH    -0.6497 ****
4531 HO1    12.165463   21.752041   12.785763 H    704 MOH     0.4215 ****
4532 HC1    22.880507   18.205996   10.168054 H    705 MOH     0.0372 ****
4533 C1     22.927849   18.929412   10.982641 C    705 MOH     0.1166 ****
4534 HC2    22.134570   19.656910   10.811521 H    705 MOH     0.0372 ****
4535 HC3    23.888560   19.442988   10.935972 H    705 MOH     0.0372 ****
4536 O1     22.742520   18.287646   12.276647 O    705 MOH    -0.6497 ****
4537 HO1    22.550840   18.963296   12.932135 H    705 MOH     0.4215 ****
4538 HC1     6.559969   22.048837    8.746062 H    706 MOH     0.0372 ****
4539 C1      6.602693   22.290520    9.808137 C    706 MOH     0.1166 ****
4540 HC2     7.639614   22.228466   10.139063 H    706 MOH     0.0372 ****
4541 HC3     6.005136   21.588741   10.390086 H    706 MOH     0.0372 ****
4542 O1      6.169103   23.584259   10.077544 O    706 MOH    -0.6497 ****
4543 HO1     5.399495   23.775727    9.536608 H    706 MOH     0.4215 ****
4544 HC1     3.956697   25.986392   16.461304 H    707 MOH     0.0372 ****
4545 C1      3.521952   25.100901   16.924459 C    707 MOH     0.1166 ****
4546 HC2     3.109724   24.426067   16.174219 H    707 MOH     0.0372 ****
4547 HC3     2.699805   25.387083   17.581361 H    707 MOH     0.0372 ****
4548 O1      4.427237   24.398306   17.719954 O    707 MOH    -0.6497 ****
4549 HO1     3.900694   23.680606   18.080579 H    707 MOH     0.4215 ****
4550 HC1     9.869341   24.158256    9.132850 H    708 MOH     0.0372 ****
4551 C1      9.328941   25.027825    8.759497 C    708 MOH     0.1166 ****
4552 HC2     8.885536   24.698368    7.819752 H    708 MOH     0.0372 ****
4553 HC3    10.051784   25.830849    8.613126 H    708 MOH     0.0372 ****
4554 O1      8.337631   25.366263    9.752982 O    708 MOH    -0.6497 ****
4555 HO1     7.701968   24.652236    9.835714 H    708 MOH     0.4215 ****
4556 HC1     8.312805   17.386233    4.823741 H    709 MOH     0.0372 ****
4557 C1      8.725610   18.393790    4.786971 C    709 MOH     0.1166 ****
4558 HC2     8.640162   18.864500    5.766314 H    709 MOH     0.0372 ****
4559 HC3     8.148837   18.981668    4.072794 H    709 MOH     0.0372 ****
4560 O1     10.065063   18.338268    4.355636 O    709 MOH    -0.6497 ****
4561 HO1    10.098549   17.677723    3.659843 H    709 MOH     0.4215 ****
4562 HC1    24.426073   15.542992   10.772631 H    710 MOH     0.0372 ****
4563 C1     23.745955   14.974302   11.406905 C    710 MOH     0.1166 ****
4564 HC2    24.100448   15.011453   12.437160 H    710 MOH     0.0372 ****
4565 HC3    23.691106   13.937760   11.075272 H    710 MOH     0.0372 ****
4566 O1     22.513312   15.597289   11.324881 O    710 MOH    -0.6497 ****
4567 HO1    22.615503   16.490128   11.660757 H    710 MOH     0.4215 ****
4568 HC1    18.294036   22.006379   15.756319 H    711 MOH     0.0372 ****
4569 C1     18.153740   21.852061   14.687174 C    711 MOH     0.1166 ****
4570 HC2    17.957441   22.806546   14.197856 H    711 MOH     0.0372 ****
4571 HC3    17.319469   21.173144   14.511104 H    711 MOH     0.0372 ****
4572 O1     19.329225   21.297660   14.135630 O    711 MOH    -0.6497 ****
4573 HO1    19.975857   21.196823   14.837787 H    711 MOH     0.4215 ****
4574 HC1    15.750231   21.800214    8.387559 H    712 MOH     0.0372 ****
4575 C1     15.589150   20.787350    8.755962 C    712 MOH     0.1166 ****
4576 HC2    14.838017   20.832257    9.543679 H    712 MOH     0.0372 ****
4577 HC3    16.514065   20.386858    9.171034 H    712 MOH     0.0372 ****
4578 O1     15.137662   19.940643    7.699544 O    712 MOH    -0.6497 ****
4579 HO1    15.542385   19.082505    7.849451 H    712 MOH     0.4215 ****
4580 HC1    24.755740   15.917356   16.001685 H    713 MOH     0.0372 ****
4581 C1     24.589463   16.004313   17.075780 C    713 MOH     0.1166 ****
4582 HC2    24.661632   17.060451   17.335289 H    713 MOH     0.0372 ****
4583 HC3    25.376392   15.450320   17.588433 H    713 MOH     0.0372 ****
4584 O1     23.263867   15.485429   17.309833 O    713 MOH    -0.6497 ****
4585 HO1    22.952675   15.834073   18.148461 H    713 MOH     0.4215 ****
4586 HC1     8.129207   24.487304   19.200636 H    714 MOH     0.0372 ****
4587 C1      7.737764   23.718164   18.535956 C    714 MOH     0.1166 ****
4588 HC2     8.237172   23.752049   17.567926 H    714 MOH     0.0372 ****
4589 HC3     6.666202   23.880647   18.411505 H    714 MOH     0.0372 ****
4590 O1      7.878637   22.451370   19.120733 O    714 MOH    -0.6497 ****
4591 HO1     7.432345   22.450962   19.969968 H    714 MOH     0.4215 ****
4592 HC1    24.349286   22.055369   14.820110 H    715 MOH     0.0372 ****
4593 C1     24.332542   21.048221   14.402210 C    715 MOH     0.1166 ****
4594 HC2    24.834260   20.389716   15.110023 H    715 MOH     0.0372 ****
4595 HC3    24.883912   21.019643   13.461758 H    715 MOH     0.0372 ****
4596 O1     22.989626   20.612620   14.253010 O    715 MOH    -0.6497 ****
4597 HO1    22.497723   20.873490   15.035777 H    715 MOH     0.4215 ****
4598 HC1    18.483984   25.846363   13.951782 H    716 MOH     0.0372 ****
4599 C1     17.420505   26.047221   13.820261 C    716 MOH     0.1166 ****
4600 HC2    16.838536   25.126213   13.847131 H    716 MOH     0.0372 ****
4601 HC3    17.255383   26.517931   12.850817 H    716 MOH     0.0372 ****
4602 O1     16.970172   26.937610   14.799603 O    716 MOH    -0.6497 ****
4603 HO1    17.080446   27.832082   14.469385 H    716 MOH     0.4215 ****
4604 HC1    17.964369   17.518098   16.358774 H    717 MOH     0.0372 ****
4605 C1     17.778462   18.103934   15.458627 C    717 MOH     0.1166 ****
4606 HC2    17.796360   17.480130   14.564844 H    717 MOH     0.0372 ****
4607 HC3    18.526131   18.889404   15.349733 H    717 MOH     0.0372 ****
4608 O1     16.536004   18.692220   15.588028 O    717 MOH    -0.6497 ****
4609 HO1    16.237514   18.802855   14.682224 H    717 MOH     0.4215 ****
4610 HC1    19.149092   21.093128   17.777937 H    718 MOH     0.0372 ****
4611 C1     19.903111   20.339501   17.550249 C    718 MOH     0.1166 ****
4612 HC2    19.416982   19.449928   17.150734 H    718 MOH     0.0372 ****
4613 HC3    20.392127   20.050053   18.480094 H    718 MOH     0.0372 ****
4614 O1     20.837264   20.881655   16.605554 O    718 MOH    -0.6497 ****
4615 HO1    21.053770   21.779393   16.865062 H    718 MOH     0.4215 ****
4616 HC1    17.394524   29.445888    8.691615 H    719 MOH     0.0372 ****
4617 C1     17.157233   29.159298    9.716920 C    719 MOH     0.1166 ****
4618 HC2    17.919336   28.496711   10.126335 H    719 MOH     0.0372 ****
4619 HC3    16.204028   28.630616    9.697828 H    719 MOH     0.0372 ****
4620 O1     17.055620   30.285655   10.554841 O    719 MOH    -0.6497 ****
4621 HO1    17.829269   30.842097   10.435340 H    719 MOH     0.4215 ****
4622 HC1    15.085701   14.463584   15.043555 H    720 MOH     0.0372 ****
4623 C1     14.678669   15.464200   14.898598 C    720 MOH     0.1166 ****
4624 HC2    13.633087   15.418477   14.593128 H    720 MOH     0.0372 ****
4625 HC3    15.235234   15.921847   14.081890 H    720 MOH     0.0372 ****
4626 O1     14.833398   16.288045   16.055425 O    720 MOH    -0.6497 ****
4627 HO1    15.116300   17.168229   15.795210 H    720 MOH     0.4215 ****
4628 HC1    14.491607   18.868991   17.265992 H    721 MOH     0.0372 ****
4629 C1     14.579942   19.854911   17.722076 C    721 MOH     0.1166 ****
4630 HC2    13.978920   19.886754   18.630001 H    721 MOH     0.0372 ****
4631 HC3    14.227758   20.590166   16.998706 H    721 MOH     0.0372 ****
4632 O1     15.919972   20.058627   18.029667 O    721 MOH    -0.6497 ****
4633 HO1    16.404946   19.591999   17.345895 H    721 MOH     0.4215 ****
4634 HC1    16.455175   14.031657   18.079872 H    722 MOH     0.0372 ****
4635 C1     17.531356   14.039822   17.910166 C    722 MOH     0.1166 ****
4636 HC2    17.951667   14.900001   18.429890 H    722 MOH     0.0372 ****
4637 HC3    17.735161   14.100243   16.841021 H    722 MOH     0.0372 ****
4638 O1     18.124872   12.895094   18.410798 O    722 MOH    -0.6497 ****
4639 HO1    17.662992   12.633815   19.209829 H    722 MOH     0.4215 ****
4640 HC1    13.101348   28.699610   10.678585 H    723 MOH     0.0372 ****
4641 C1     12.518801   27.826775   10.974156 C    723 MOH     0.1166 ****
4642 HC2    12.854819   26.911891   10.486959 H    723 MOH     0.0372 ****
4643 HC3    11.498623   28.006813   10.636866 H    723 MOH     0.0372 ****
4644 O1     12.511873   27.679806   12.377056 O    723 MOH    -0.6497 ****
4645 HO1    12.325389   28.541618   12.758186 H    723 MOH     0.4215 ****
4646 HC1    12.270541   25.685105   14.949510 H    724 MOH     0.0372 ****
4647 C1     13.302266   25.401372   14.743742 C    724 MOH     0.1166 ****
4648 HC2    13.573043   24.575486   15.400644 H    724 MOH     0.0372 ****
4649 HC3    13.950630   26.252161   14.954460 H    724 MOH     0.0372 ****
4650 O1     13.440252   25.082122   13.381854 O    724 MOH    -0.6497 ****
4651 HO1    13.143494   25.874940   12.929306 H    724 MOH     0.4215 ****
4652 HC1    17.764606   24.957606    9.262957 H    725 MOH     0.0372 ****
4653 C1     17.779040   25.665100    8.433521 C    725 MOH     0.1166 ****
4654 HC2    16.788307   26.096211    8.292100 H    725 MOH     0.0372 ****
4655 HC3    18.117944   25.171936    7.522768 H    725 MOH     0.0372 ****
4656 O1     18.656035   26.716748    8.740405 O    725 MOH    -0.6497 ****
4657 HO1    18.852334   26.723688    9.680150 H    725 MOH     0.4215 ****
4658 HC1     8.967520   21.501376    7.046885 H    726 MOH     0.0372 ****
4659 C1      9.755603   21.535669    6.294523 C    726 MOH     0.1166 ****
4660 HC2     9.335292   21.927179    5.367506 H    726 MOH     0.0372 ****
4661 HC3    10.153397   20.537910    6.107847 H    726 MOH     0.0372 ****
4662 O1     10.761924   22.435856    6.644541 O    726 MOH    -0.6497 ****
4663 HO1    11.589267   21.970862    6.500998 H    726 MOH     0.4215 ****
4664 HC1    12.171236   20.880839    4.328766 H    727 MOH     0.0372 ****
4665 C1     12.601362   20.310924    5.153253 C    727 MOH     0.1166 ****
4666 HC2    13.376744   19.667116    4.738181 H    727 MOH     0.0372 ****
4667 HC3    11.856003   19.662218    5.613579 H    727 MOH     0.0372 ****
4668 O1     13.170630   21.205396    6.092998 O    727 MOH    -0.6497 ****
4669 HO1    13.585167   20.666100    6.769699 H    727 MOH     0.4215 ****
4670 HC1    23.234422   23.919022   11.273969 H    728 MOH     0.0372 ****
4671 C1     23.195162   22.849412   11.068908 C    728 MOH     0.1166 ****
4672 HC2    22.416894   22.421159   11.700355 H    728 MOH     0.0372 ****
4673 HC3    24.163956   22.412995   11.312860 H    728 MOH     0.0372 ****
4674 O1     22.906487   22.557514    9.700657 O    728 MOH    -0.6497 ****
4675 HO1    23.336036   21.743059    9.428420 H    728 MOH     0.4215 ****
4676 HC1    27.395963   22.599156    9.027491 H    729 MOH     0.0372 ****
4677 C1     26.873461   23.528329    9.255179 C    729 MOH     0.1166 ****
4678 HC2    25.841159   23.315223    9.533779 H    729 MOH     0.0372 ****
4679 HC3    26.913876   24.174586    8.379074 H    729 MOH     0.0372 ****
4680 O1     27.561085   24.091711   10.321496 O    729 MOH    -0.6497 ****
4681 HO1    28.023543   23.376460   10.764145 H    729 MOH     0.4215 ****
4682 HC1    22.269093   24.743684    8.646360 H    730 MOH     0.0372 ****
4683 C1     21.332053   24.999656    8.153507 C    730 MOH     0.1166 ****
4684 HC2    20.493741   24.667750    8.766568 H    730 MOH     0.0372 ****
4685 HC3    21.313578   24.500776    7.184771 H    730 MOH     0.0372 ****
4686 O1     21.301454   26.383209    7.936425 O    730 MOH    -0.6497 ****
4687 HO1    20.385199   26.624484    7.784397 H    730 MOH     0.4215 ****
4688 HC1    12.322502   24.041497   17.888246 H    731 MOH     0.0372 ****
4689 C1     11.312716   24.440764   17.980170 C    731 MOH     0.1166 ****
4690 HC2    10.700148   23.699385   18.493529 H    731 MOH     0.0372 ****
4691 HC3    10.911458   24.632641   16.984563 H    731 MOH     0.0372 ****
4692 O1     11.380844   25.629583   18.742431 O    731 MOH    -0.6497 ****
4693 HO1    11.715130   26.322788   18.168260 H    731 MOH     0.4215 ****
4694 HC1    18.939514   20.033723    6.938697 H    732 MOH     0.0372 ****
4695 C1     19.244932   19.053519    6.571709 C    732 MOH     0.1166 ****
4696 HC2    20.194096   19.133128    6.042086 H    732 MOH     0.0372 ****
4697 HC3    18.478211   18.661193    5.904907 H    732 MOH     0.0372 ****
4698 O1     19.398507   18.132919    7.645804 O    732 MOH    -0.6497 ****
4699 HO1    20.247789   17.698951    7.537617 H    732 MOH     0.4215 ****
4700 HC1    24.780566   17.385417   13.611664 H    733 MOH     0.0372 ****
4701 C1     25.651788   17.888787   13.192350 C    733 MOH     0.1166 ****
4702 HC2    25.353875   18.837964   12.748994 H    733 MOH     0.0372 ****
4703 HC3    26.090574   17.277231   12.403219 H    733 MOH     0.0372 ****
4704 O1     26.620582   18.163946   14.178057 O    733 MOH    -0.6497 ****
4705 HO1    27.050707   17.325813   14.361197 H    733 MOH     0.4215 ****
4706 HC1     8.066276   31.277698   16.312105 H    734 MOH     0.0372 ****
4707 C1      8.928837   31.740651   15.832686 C    734 MOH     0.1166 ****
4708 HC2     9.715766   31.855369   16.578684 H    734 MOH     0.0372 ****
4709 HC3     8.611872   32.732695   15.510246 H    734 MOH     0.0372 ****
4710 O1      9.311620   30.953141   14.673738 O    734 MOH    -0.6497 ****
4711 HO1     8.617645   30.999273   14.012594 H    734 MOH     0.4215 ****
4712 HC1    16.225390   23.709183    1.863792 H    735 MOH     0.0372 ****
4713 C1     17.149151   23.897385    1.315784 C    735 MOH     0.1166 ****
4714 HC2    17.739780   22.982501    1.353261 H    735 MOH     0.0372 ****
4715 HC3    17.671652   24.720822    1.802981 H    735 MOH     0.0372 ****
4716 O1     16.876064   24.249704   -0.038325 O    735 MOH    -0.6497 ****
4717 HO1    17.657796   24.671832   -0.401778 H    735 MOH     0.4215 ****
4718 HC1    13.812066   18.971053   12.774450 H    736 MOH     0.0372 ****
4719 C1     14.668854   18.713040   12.150782 C    736 MOH     0.1166 ****
4720 HC2    14.854760   19.506267   11.427411 H    736 MOH     0.0372 ****
4721 HC3    14.422902   17.809179   11.593581 H    736 MOH     0.0372 ****
4722 O1     15.832214   18.522388   12.951934 O    736 MOH    -0.6497 ****
4723 HO1    16.528499   18.174561   12.390491 H    736 MOH     0.4215 ****
4724 HC1    19.866738   18.630982   11.957741 H    737 MOH     0.0372 ****
4725 C1     19.368485   17.855311   11.377914 C    737 MOH     0.1166 ****
4726 HC2    20.095369   17.109849   11.055473 H    737 MOH     0.0372 ****
4727 HC3    18.906027   18.329287   10.511708 H    737 MOH     0.0372 ****
4728 O1     18.393340   17.224567   12.174823 O    737 MOH    -0.6497 ****
4729 HO1    18.865035   16.855511   12.924356 H    737 MOH     0.4215 ****
4730 HC1    14.947714   30.650629   13.326700 H    738 MOH     0.0372 ****
4731 C1     15.129002   29.612453   13.606007 C    738 MOH     0.1166 ****
4732 HC2    14.469668   28.975178   13.016987 H    738 MOH     0.0372 ****
4733 HC3    14.904413   29.457727   14.661718 H    738 MOH     0.0372 ****
4734 O1     16.459217   29.216861   13.364884 O    738 MOH    -0.6497 ****
4735 HO1    16.638773   29.325046   12.427967 H    738 MOH     0.4215 ****
4736 HC1    18.205701   22.263576    9.632774 H    739 MOH     0.0372 ****
4737 C1     19.132926   22.086804   10.176539 C    739 MOH     0.1166 ****
4738 HC2    19.067108   21.162122   10.750003 H    739 MOH     0.0372 ****
4739 HC3    19.356360   22.923305   10.839098 H    739 MOH     0.0372 ****
4740 O1     20.136361   21.984742    9.245987 O    739 MOH    -0.6497 ****
4741 HO1    20.946383   22.325629    9.632774 H    739 MOH     0.4215 ****
4742 HC1    16.108765   22.407687    4.359879 H    740 MOH     0.0372 ****
4743 C1     16.388780   21.499335    4.893745 C    740 MOH     0.1166 ****
4744 HC2    17.197071   21.003721    4.356343 H    740 MOH     0.0372 ****
4745 HC3    15.557973   20.793474    4.917079 H    740 MOH     0.0372 ****
4746 O1     16.826412   21.760614    6.213206 O    740 MOH    -0.6497 ****
4747 HO1    16.478847   21.055977    6.764749 H    740 MOH     0.4215 ****
4748 HC1    20.542815   11.920197   16.200382 H    741 MOH     0.0372 ****
4749 C1     21.124207   12.677498   16.727177 C    741 MOH     0.1166 ****
4750 HC2    22.177871   12.433365   16.589998 H    741 MOH     0.0372 ****
4751 HC3    20.894422   12.688112   17.792080 H    741 MOH     0.0372 ****
4752 O1     20.996035   13.937760   16.174926 O    741 MOH    -0.6497 ****
4753 HO1    21.794511   14.414186   16.416050 H    741 MOH     0.4215 ****
4754 HC1    20.763363   11.597681   11.537720 H    742 MOH     0.0372 ****
4755 C1     20.730454   12.682805   11.438725 C    742 MOH     0.1166 ****
4756 HC2    21.175591   13.151882   12.316245 H    742 MOH     0.0372 ****
4757 HC3    19.692956   13.008587   11.363772 H    742 MOH     0.0372 ****
4758 O1     21.416346   13.060026   10.273413 O    742 MOH    -0.6497 ****
4759 HO1    21.517960   14.013286   10.313718 H    742 MOH     0.4215 ****
4760 HC1    29.196718   20.414619   12.720710 H    743 MOH     0.0372 ****
4761 C1     28.290856   20.739177   12.209471 C    743 MOH     0.1166 ****
4762 HC2    27.405201   20.346442   12.708689 H    743 MOH     0.0372 ****
4763 HC3    28.298361   20.390941   11.176388 H    743 MOH     0.0372 ****
4764 O1     28.197903   22.131303   12.223614 O    743 MOH    -0.6497 ****
4765 HO1    28.468102   22.416669   13.099719 H    743 MOH     0.4215 ****
4766 HC1    16.217307   23.941476    9.827936 H    744 MOH     0.0372 ****
4767 C1     15.586841   23.627941   10.659493 C    744 MOH     0.1166 ****
4768 HC2    14.610541   23.315223   10.288969 H    744 MOH     0.0372 ****
4769 HC3    15.416522   24.455052   11.349630 H    744 MOH     0.0372 ****
4770 O1     16.189017   22.573844   11.355286 O    744 MOH    -0.6497 ****
4771 HO1    15.538343   22.219485   11.964812 H    744 MOH     0.4215 ****
4772 HC1     8.217542   18.606079   13.024765 H    745 MOH     0.0372 ****
4773 C1      8.861287   19.390324   12.628079 C    745 MOH     0.1166 ****
4774 HC2     8.895351   20.191716   13.365591 H    745 MOH     0.0372 ****
4775 HC3     8.462338   19.830416   11.713082 H    745 MOH     0.0372 ****
4776 O1     10.173027   18.925738   12.397562 O    745 MOH    -0.6497 ****
4777 HO1    10.615277   19.712840   12.072293 H    745 MOH     0.4215 ****
4778 HC1    14.709846   25.641830    7.867129 H    746 MOH     0.0372 ****
4779 C1     14.576478   24.619168    7.514282 C    746 MOH     0.1166 ****
4780 HC2    13.577662   24.541601    7.085776 H    746 MOH     0.0372 ****
4781 HC3    14.649801   23.902284    8.331698 H    746 MOH     0.0372 ****
4782 O1     15.496774   24.341968    6.502413 O    746 MOH    -0.6497 ****
4783 HO1    15.612821   23.394015    6.410489 H    746 MOH     0.4215 ****
4784 HC1    16.896848   16.367246    6.824853 H    747 MOH     0.0372 ****
4785 C1     16.160149   16.713032    7.549638 C    747 MOH     0.1166 ****
4786 HC2    15.889372   15.905109    8.230582 H    747 MOH     0.0372 ****
4787 HC3    15.251400   17.012686    7.029207 H    747 MOH     0.0372 ****
4788 O1     16.600090   17.794482    8.343719 O    747 MOH    -0.6497 ****
4789 HO1    17.547522   17.725896    8.479483 H    747 MOH     0.4215 ****
4790 HC1    15.734065   14.116573   12.587066 H    748 MOH     0.0372 ****
4791 C1     16.769254   14.420718   12.430796 C    748 MOH     0.1166 ****
4792 HC2    17.358151   13.518081   12.263212 H    748 MOH     0.0372 ****
4793 HC3    17.142222   14.977568   13.289223 H    748 MOH     0.0372 ****
4794 O1     16.766945   15.152299   11.254170 O    748 MOH    -0.6497 ****
4795 HO1    17.404339   15.861426   11.363772 H    748 MOH     0.4215 ****
4796 HC1     7.211798   27.612445   13.275788 H    749 MOH     0.0372 ****
4797 C1      7.045521   28.682872   13.394582 C    749 MOH     0.1166 ****
4798 HC2     7.398859   29.003755   14.374632 H    749 MOH     0.0372 ****
4799 HC3     5.978577   28.895977   13.322457 H    749 MOH     0.0372 ****
4800 O1      7.732568   29.397306   12.384834 O    749 MOH    -0.6497 ****
4801 HO1     7.641924   28.867400   11.590046 H    749 MOH     0.4215 ****
4802 HC1     9.689785   27.163372   12.951933 H    750 MOH     0.0372 ****
4803 C1      9.957098   26.158673   13.280738 C    750 MOH     0.1166 ****
4804 HC2    10.901643   25.869225   12.820412 H    750 MOH     0.0372 ****
4805 HC3     9.194418   25.445055   12.971025 H    750 MOH     0.0372 ****
4806 O1     10.124530   26.166429   14.709801 O    750 MOH    -0.6497 ****
4807 HO1     9.296032   26.354224   15.156692 H    750 MOH     0.4215 ****
4808 HC1    20.849388   26.047629    4.976476 H    751 MOH     0.0372 ****
4809 C1     19.925051   26.562838    4.714847 C    751 MOH     0.1166 ****
4810 HC2    19.212023   26.515890    5.538626 H    751 MOH     0.0372 ****
4811 HC3    19.489151   26.116623    3.821771 H    751 MOH     0.0372 ****
4812 O1     20.162919   27.912099    4.435539 O    751 MOH    -0.6497 ****
4813 HO1    20.667523   27.942309    3.619538 H    751 MOH     0.4215 ****
4814 HC1    11.108912   15.827950    5.515999 H    752 MOH     0.0372 ****
4815 C1     11.622754   16.136994    6.426045 C    752 MOH     0.1166 ****
4816 HC2    12.705863   16.110866    6.310080 H    752 MOH     0.0372 ****
4817 HC3    11.319645   15.497677    7.256188 H    752 MOH     0.0372 ****
4818 O1     11.183390   17.394398    6.708888 O    752 MOH    -0.6497 ****
4819 HO1    10.851414   17.756514    5.883694 H    752 MOH     0.4215 ****
4820 HC1     4.485550   25.249912   11.350337 H    753 MOH     0.0372 ****
4821 C1      5.044425   25.882288   12.039766 C    753 MOH     0.1166 ****
4822 HC2     5.089458   26.882905   11.609138 H    753 MOH     0.0372 ****
4823 HC3     6.057674   25.487921   12.120376 H    753 MOH     0.0372 ****
4824 O1      4.379317   25.894536   13.328114 O    753 MOH    -0.6497 ****
4825 HO1     4.846393   25.276448   13.893800 H    753 MOH     0.4215 ****
4826 HC1    12.960474   19.036781    9.249522 H    754 MOH     0.0372 ****
4827 C1     12.078283   19.620168    9.510445 C    754 MOH     0.1166 ****
4828 HC2    12.382547   20.618743    9.821572 H    754 MOH     0.0372 ****
4829 HC3    11.543079   19.130270   10.323618 H    754 MOH     0.0372 ****
4830 O1     11.257291   19.675281    8.343011 O    754 MOH    -0.6497 ****
4831 HO1    11.166647   18.786525    7.990165 H    754 MOH     0.4215 ****
4832 HC1    20.497205   10.044296   14.700609 H    755 MOH     0.0372 ****
4833 C1     21.334940   10.272507   14.040878 C    755 MOH     0.1166 ****
4834 HC2    21.692320   11.273940   14.276345 H    755 MOH     0.0372 ****
4835 HC3    20.984488   10.227600   13.009916 H    755 MOH     0.0372 ****
4836 O1     22.415740    9.330678   14.245232 O    755 MOH    -0.6497 ****
4837 HO1    23.248856    9.718922   13.967339 H    755 MOH     0.4215 ****
4838 HC1    14.690793   20.899618   14.315942 H    756 MOH     0.0372 ****
4839 C1     14.379024   21.943101   14.280587 C    756 MOH     0.1166 ****
4840 HC2    15.185005   22.600381   14.608685 H    756 MOH     0.0372 ****
4841 HC3    13.536092   22.066392   14.959410 H    756 MOH     0.0372 ****
4842 O1     13.925804   22.289295   12.986582 O    756 MOH    -0.6497 ****
4843 HO1    13.714494   23.225000   13.016280 H    756 MOH     0.4215 ****
4844 HC1    10.416092   20.070466   15.132651 H    757 MOH     0.0372 ****
4845 C1     11.187431   19.777344   15.845414 C    757 MOH     0.1166 ****
4846 HC2    12.085211   19.520964   15.282557 H    757 MOH     0.0372 ****
4847 HC3    10.857187   18.888995   16.384230 H    757 MOH     0.0372 ****
4848 O1     11.447816   20.854711   16.754047 O    757 MOH    -0.6497 ****
4849 HO1    10.781554   20.829808   17.444890 H    757 MOH     0.4215 ****
4850 HC1    10.286765   20.681205   21.015779 H    758 MOH     0.0372 ****
4851 C1     10.770007   20.530562   20.050578 C    758 MOH     0.1166 ****
4852 HC2    11.225537   19.540968   20.030779 H    758 MOH     0.0372 ****
4853 HC3    11.530378   21.299701   19.911986 H    758 MOH     0.0372 ****
4854 O1      9.738860   20.579960   19.064164 O    758 MOH    -0.6497 ****
4855 HO1     9.226173   21.380943   19.194272 H    758 MOH     0.4215 ****
4856 HC1     5.986660   22.108850   14.682224 H    759 MOH     0.0372 ****
4857 C1      6.574403   23.024550   14.743742 C    759 MOH     0.1166 ****
4858 HC2     7.040325   23.235207   13.780663 H    759 MOH     0.0372 ****
4859 HC3     7.363063   22.875948   15.480547 H    759 MOH     0.0372 ****
4860 O1      5.792671   24.149275   15.119216 O    759 MOH    -0.6497 ****
4861 HO1     5.392567   23.985159   15.976229 H    759 MOH     0.4215 ****
4862 HC1    19.721823   24.716331   12.232099 H    760 MOH     0.0372 ****
4863 C1     20.503555   25.389533   11.880667 C    760 MOH     0.1166 ****
4864 HC2    21.063008   24.954748   11.052645 H    760 MOH     0.0372 ****
4865 HC3    21.188870   25.594473   12.702325 H    760 MOH     0.0372 ****
4866 O1     19.929669   26.588966   11.435189 O    760 MOH    -0.6497 ****
4867 HO1    20.124814   27.232366   12.121083 H    760 MOH     0.4215 ****
4868 HC1   -10.173143  -26.353734   -1.701299 H    761 MOH     0.0372 ****
4869 C1    -11.209486  -26.214929   -1.394415 C    761 MOH     0.1166 ****
4870 HC2   -11.772980  -25.850772   -2.252842 H    761 MOH     0.0372 ****
4871 HC3   -11.279346  -25.464977   -0.605990 H    761 MOH     0.0372 ****
4872 O1    -11.734875  -27.457637   -0.977221 O    761 MOH    -0.6497 ****
4873 HO1   -12.497555  -27.305360   -0.415072 H    761 MOH     0.4215 ****
4874 HC1     2.693108  -30.906518    1.115815 H    762 MOH     0.0372 ****
4875 C1      3.126698  -30.713417    2.096572 C    762 MOH     0.1166 ****
4876 HC2     3.412486  -29.662586    2.147484 H    762 MOH     0.0372 ****
4877 HC3     4.014663  -31.332730    2.223144 H    762 MOH     0.0372 ****
4878 O1      2.172338  -31.028176    3.104199 O    762 MOH    -0.6497 ****
4879 HO1     2.373256  -31.919791    3.396941 H    762 MOH     0.4215 ****
4880 HC1    -9.123520  -27.805056    2.967727 H    763 MOH     0.0372 ****
4881 C1     -8.519612  -27.253513    3.688269 C    763 MOH     0.1166 ****
4882 HC2    -7.707857  -27.888747    4.041822 H    763 MOH     0.0372 ****
4883 HC3    -9.167976  -26.967739    4.516998 H    763 MOH     0.0372 ****
4884 O1     -8.015007  -26.129605    3.032781 O    763 MOH    -0.6497 ****
4885 HO1    -7.202098  -25.867918    3.471894 H    763 MOH     0.4215 ****
4886 HC1    -1.723044  -26.321482  -10.612966 H    764 MOH     0.0372 ****
4887 C1     -1.185531  -25.978962  -11.497556 C    764 MOH     0.1166 ****
4888 HC2    -1.513466  -26.552959  -12.364469 H    764 MOH     0.0372 ****
4889 HC3    -0.126093  -26.163490  -11.319365 H    764 MOH     0.0372 ****
4890 O1     -1.445916  -24.598266  -11.766257 O    764 MOH    -0.6497 ****
4891 HO1    -1.186686  -24.393325  -12.667111 H    764 MOH     0.4215 ****
4892 HC1   -11.061685  -33.126573    7.352496 H    765 MOH     0.0372 ****
4893 C1    -12.081863  -33.419287    7.600691 C    765 MOH     0.1166 ****
4894 HC2   -12.242943  -33.361724    8.676200 H    765 MOH     0.0372 ****
4895 HC3   -12.290286  -34.441540    7.283907 H    765 MOH     0.0372 ****
4896 O1    -12.968095  -32.526856    6.999650 O    765 MOH    -0.6497 ****
4897 HO1   -12.516607  -32.150451    6.240217 H    765 MOH     0.4215 ****
4898 HC1     1.645795  -28.153700   -1.970706 H    766 MOH     0.0372 ****
4899 C1      1.694292  -29.241274   -2.021618 C    766 MOH     0.1166 ****
4900 HC2     1.316128  -29.596041   -2.979748 H    766 MOH     0.0372 ****
4901 HC3     1.087497  -29.687897   -1.233901 H    766 MOH     0.0372 ****
4902 O1      3.030858  -29.675650   -1.948079 O    766 MOH    -0.6497 ****
4903 HO1     2.998526  -30.635033   -1.926866 H    766 MOH     0.4215 ****
4904 HC1    -7.264452  -29.178404   -7.544122 H    767 MOH     0.0372 ****
4905 C1     -7.218841  -29.633192   -8.534072 C    767 MOH     0.1166 ****
4906 HC2    -6.301432  -30.212088   -8.642966 H    767 MOH     0.0372 ****
4907 HC3    -7.229234  -28.855479   -9.297040 H    767 MOH     0.0372 ****
4908 O1     -8.322158  -30.469693   -8.751153 O    767 MOH    -0.6497 ****
4909 HO1    -8.062927  -31.357225   -8.493767 H    767 MOH     0.4215 ****
4910 HC1   -16.462797  -30.339870    3.556747 H    768 MOH     0.0372 ****
4911 C1    -15.422411  -30.312517    3.230771 C    768 MOH     0.1166 ****
4912 HC2   -14.838133  -30.952242    3.893330 H    768 MOH     0.0372 ****
4913 HC3   -15.081197  -29.278833    3.284511 H    768 MOH     0.0372 ****
4914 O1    -15.355439  -30.794658    1.907774 O    768 MOH    -0.6497 ****
4915 HO1   -15.950109  -31.547468    1.863934 H    768 MOH     0.4215 ****
4916 HC1     6.441843  -30.488064    0.282136 H    769 MOH     0.0372 ****
4917 C1      6.524404  -29.548276    0.828022 C    769 MOH     0.1166 ****
4918 HC2     5.697639  -28.892630    0.555079 H    769 MOH     0.0372 ****
4919 HC3     7.481651  -29.086139    0.583363 H    769 MOH     0.0372 ****
4920 O1      6.483413  -29.906310    2.169404 O    769 MOH    -0.6497 ****
4921 HO1     6.707424  -29.163298    2.733675 H    769 MOH     0.4215 ****
4922 HC1   -13.327207  -33.250272   -5.072077 H    770 MOH     0.0372 ****
4923 C1    -13.867607  -32.380703   -5.445429 C    770 MOH     0.1166 ****
4924 HC2   -14.311012  -32.710159   -6.385174 H    770 MOH     0.0372 ****
4925 HC3   -13.144764  -31.577679   -5.591800 H    770 MOH     0.0372 ****
4926 O1    -14.858917  -32.042265   -4.451944 O    770 MOH    -0.6497 ****
4927 HO1   -15.494580  -32.756292   -4.369213 H    770 MOH     0.4215 ****
4928 HC1    -7.669175  -18.696220    5.882421 H    771 MOH     0.0372 ****
4929 C1     -8.010966  -19.365748    5.093290 C    771 MOH     0.1166 ****
4930 HC2    -8.509219  -20.241848    5.509069 H    771 MOH     0.0372 ****
4931 HC3    -7.138590  -19.683773    4.522655 H    771 MOH     0.0372 ****
4932 O1     -8.792121  -18.635800    4.171223 O    771 MOH    -0.6497 ****
4933 HO1    -8.764985  -19.122840    3.344615 H    771 MOH     0.4215 ****
4934 HC1    -2.139314  -27.365781    2.841862 H    772 MOH     0.0372 ****
4935 C1     -1.656649  -28.331696    2.694784 C    772 MOH     0.1166 ****
4936 HC2    -2.429721  -29.085731    2.546999 H    772 MOH     0.0372 ****
4937 HC3    -1.092000  -28.574196    3.594224 H    772 MOH     0.0372 ****
4938 O1     -0.748477  -28.303936    1.571899 O    772 MOH    -0.6497 ****
4939 HO1    -0.037181  -27.699728    1.801001 H    772 MOH     0.4215 ****
4940 HC1     0.425276  -24.094079   10.977833 H    773 MOH     0.0372 ****
4941 C1     -0.286019  -24.919965   10.967226 C    773 MOH     0.1166 ****
4942 HC2     0.075979  -25.651138   10.243856 H    773 MOH     0.0372 ****
4943 HC3    -1.275020  -24.547643   10.697112 H    773 MOH     0.0372 ****
4944 O1     -0.349528  -25.493554   12.252039 O    773 MOH    -0.6497 ****
4945 HO1    -0.625501  -24.809738   12.866515 H    773 MOH     0.4215 ****
4946 HC1    -4.712564  -31.562165   -0.253144 H    774 MOH     0.0372 ****
4947 C1     -5.776043  -31.361307   -0.384666 C    774 MOH     0.1166 ****
4948 HC2    -6.358012  -32.282315   -0.357796 H    774 MOH     0.0372 ****
4949 HC3    -5.941165  -30.890597   -1.354109 H    774 MOH     0.0372 ****
4950 O1     -6.226376  -30.470918    0.594677 O    774 MOH    -0.6497 ****
4951 HO1    -6.116102  -29.576446    0.264458 H    774 MOH     0.4215 ****
4952 HC1    -0.999624  -28.634617   -3.049751 H    775 MOH     0.0372 ****
4953 C1     -1.403769  -28.288830   -4.000810 C    775 MOH     0.1166 ****
4954 HC2    -2.336767  -28.812205   -4.212942 H    775 MOH     0.0372 ****
4955 HC3    -0.682659  -28.433759   -4.804790 H    775 MOH     0.0372 ****
4956 O1     -1.650298  -26.922832   -3.846661 O    775 MOH    -0.6497 ****
4957 HO1    -0.825842  -26.467227   -3.658570 H    775 MOH     0.4215 ****
4958 HC1    -5.802024  -27.962640   -5.513311 H    776 MOH     0.0372 ****
4959 C1     -6.039315  -28.249230   -4.488007 C    776 MOH     0.1166 ****
4960 HC2    -5.277212  -28.911817   -4.078592 H    776 MOH     0.0372 ****
4961 HC3    -6.992520  -28.777912   -4.507098 H    776 MOH     0.0372 ****
4962 O1     -6.140928  -27.122873   -3.650085 O    776 MOH    -0.6497 ****
4963 HO1    -5.367279  -26.566431   -3.769586 H    776 MOH     0.4215 ****
4964 HC1    -4.408878  -24.439457    7.859492 H    777 MOH     0.0372 ****
4965 C1     -4.451602  -23.565398    7.209661 C    777 MOH     0.1166 ****
4966 HC2    -3.650817  -22.865252    7.447956 H    777 MOH     0.0372 ****
4967 HC3    -5.390950  -23.049372    7.404822 H    777 MOH     0.0372 ****
4968 O1     -4.451024  -23.919757    5.818075 O    777 MOH    -0.6497 ****
4969 HO1    -4.341905  -23.127347    5.287038 H    777 MOH     0.4215 ****
4970 HC1   -10.095200  -28.708918   -3.526341 H    778 MOH     0.0372 ****
4971 C1    -10.677747  -29.581753   -3.230771 C    778 MOH     0.1166 ****
4972 HC2   -10.341729  -30.496637   -3.717967 H    778 MOH     0.0372 ****
4973 HC3   -11.697925  -29.401715   -3.568061 H    778 MOH     0.0372 ****
4974 O1    -10.684675  -29.728722   -1.827871 O    778 MOH    -0.6497 ****
4975 HO1   -10.871159  -28.866910   -1.446740 H    778 MOH     0.4215 ****
4976 HC1   -10.926007  -31.723423    0.744584 H    779 MOH     0.0372 ****
4977 C1     -9.894283  -32.007156    0.538815 C    779 MOH     0.1166 ****
4978 HC2    -9.623505  -32.833042    1.195718 H    779 MOH     0.0372 ****
4979 HC3    -9.245918  -31.156366    0.749533 H    779 MOH     0.0372 ****
4980 O1     -9.756296  -32.326406   -0.823072 O    779 MOH    -0.6497 ****
4981 HO1   -10.053054  -31.533588   -1.275621 H    779 MOH     0.4215 ****
4982 HC1    -5.431942  -32.450922   -4.941969 H    780 MOH     0.0372 ****
4983 C1     -5.417508  -31.743428   -5.771405 C    780 MOH     0.1166 ****
4984 HC2    -6.408242  -31.312317   -5.912827 H    780 MOH     0.0372 ****
4985 HC3    -5.078604  -32.236591   -6.682159 H    780 MOH     0.0372 ****
4986 O1     -4.540513  -30.691780   -5.464521 O    780 MOH    -0.6497 ****
4987 HO1    -4.344214  -30.684840   -4.524776 H    780 MOH     0.4215 ****
4988 HC1   -11.635571  -27.968764    1.941715 H    781 MOH     0.0372 ****
4989 C1    -11.875171  -28.601549    2.795900 C    781 MOH     0.1166 ****
4990 HC2   -12.920753  -28.477033    3.076622 H    781 MOH     0.0372 ****
4991 HC3   -11.242973  -28.294138    3.629579 H    781 MOH     0.0372 ****
4992 O1    -11.573217  -29.951626    2.479824 O    781 MOH    -0.6497 ****
4993 HO1   -12.035675  -30.224744    1.684328 H    781 MOH     0.4215 ****
4994 HC1    -0.678040  -27.812405   -7.590791 H    782 MOH     0.0372 ****
4995 C1      0.065587  -28.333330   -8.193246 C    782 MOH     0.1166 ****
4996 HC2     0.981265  -27.743819   -8.241329 H    782 MOH     0.0372 ****
4997 HC3    -0.270431  -28.454579   -9.223501 H    782 MOH     0.0372 ****
4998 O1      0.403914  -29.562157   -7.609176 O    782 MOH    -0.6497 ****
4999 HO1    -0.299876  -29.833642   -7.015913 H    782 MOH     0.4215 ****
5000 HC1    -0.927455  -32.664844   -5.558566 H    783 MOH     0.0372 ****
5001 C1     -1.864495  -32.408872   -6.051420 C    783 MOH     0.1166 ****
5002 HC2    -2.702807  -32.740778   -5.438358 H    783 MOH     0.0372 ****
5003 HC3    -1.882970  -32.907752   -7.020156 H    783 MOH     0.0372 ****
5004 O1     -1.895094  -31.025319   -6.268501 O    783 MOH    -0.6497 ****
5005 HO1    -2.811349  -30.784044   -6.420529 H    783 MOH     0.4215 ****
5006 HC1   -10.874046  -33.367031    3.683319 H    784 MOH     0.0372 ****
5007 C1    -11.883832  -32.967764    3.775243 C    784 MOH     0.1166 ****
5008 HC2   -12.496400  -33.709143    4.288603 H    784 MOH     0.0372 ****
5009 HC3   -12.285090  -32.775887    2.779637 H    784 MOH     0.0372 ****
5010 O1    -11.815704  -31.778945    4.537504 O    784 MOH    -0.6497 ****
5011 HO1   -11.481418  -31.085739    3.963334 H    784 MOH     0.4215 ****
5012 HC1   -15.130272  -26.130830    2.107178 H    785 MOH     0.0372 ****
5013 C1    -14.267711  -25.667876    1.627760 C    785 MOH     0.1166 ****
5014 HC2   -13.480782  -25.553159    2.373758 H    785 MOH     0.0372 ****
5015 HC3   -14.584676  -24.675833    1.305319 H    785 MOH     0.0372 ****
5016 O1    -13.884928  -26.455387    0.468812 O    785 MOH    -0.6497 ****
5017 HO1   -14.578903  -26.409255   -0.192333 H    785 MOH     0.4215 ****
5018 HC1    -8.443979  -30.693413    8.367902 H    786 MOH     0.0372 ****
5019 C1     -7.836029  -29.822619    8.119707 C    786 MOH     0.1166 ****
5020 HC2    -6.786406  -30.092063    8.005156 H    786 MOH     0.0372 ****
5021 HC3    -7.892609  -29.100428    8.935001 H    786 MOH     0.0372 ****
5022 O1     -8.230936  -29.260461    6.909848 O    786 MOH    -0.6497 ****
5023 HO1    -7.949190  -29.858953    6.214055 H    786 MOH     0.4215 ****
5024 HC1    -6.971158  -33.699345  -12.341134 H    787 MOH     0.0372 ****
5025 C1     -6.047398  -33.511143  -12.889142 C    787 MOH     0.1166 ****
5026 HC2    -5.456768  -34.426027  -12.851666 H    787 MOH     0.0372 ****
5027 HC3    -5.524896  -32.687706  -12.401946 H    787 MOH     0.0372 ****
5028 O1     -6.320484  -33.158824  -14.243252 O    787 MOH    -0.6497 ****
5029 HO1    -5.538752  -32.736696  -14.606705 H    787 MOH     0.4215 ****
5030 HC1     0.010739  -32.725673    4.939848 H    788 MOH     0.0372 ****
5031 C1     -0.611645  -31.831201    4.930656 C    788 MOH     0.1166 ****
5032 HC2    -0.167663  -31.044098    5.540182 H    788 MOH     0.0372 ****
5033 HC3    -1.583325  -32.109218    5.340071 H    788 MOH     0.0372 ****
5034 O1     -0.791201  -31.378453    3.609073 O    788 MOH    -0.6497 ****
5035 HO1     0.066164  -31.102886    3.276026 H    788 MOH     0.4215 ****
5036 HC1    -4.005310  -27.078783   -6.540738 H    789 MOH     0.0372 ****
5037 C1     -3.412371  -27.417220   -7.389973 C    789 MOH     0.1166 ****
5038 HC2    -3.045176  -28.412938   -7.141778 H    789 MOH     0.0372 ****
5039 HC3    -2.565398  -26.747285   -7.542001 H    789 MOH     0.0372 ****
5040 O1     -4.216620  -27.468251   -8.560235 O    789 MOH    -0.6497 ****
5041 HO1    -3.809588  -28.118591   -9.137941 H    789 MOH     0.4215 ****
5042 HC1    -8.248834  -26.757899   -0.878227 H    790 MOH     0.0372 ****
5043 C1     -8.067546  -27.796075   -0.598919 C    790 MOH     0.1166 ****
5044 HC2    -8.726880  -28.433350   -1.187939 H    790 MOH     0.0372 ****
5045 HC3    -8.292136  -27.950801    0.456791 H    790 MOH     0.0372 ****
5046 O1     -6.737331  -28.191667   -0.840043 O    790 MOH    -0.6497 ****
5047 HO1    -6.557775  -28.083482   -1.776959 H    790 MOH     0.4215 ****
5048 HC1    -4.360380  -32.546044    2.780344 H    791 MOH     0.0372 ****
5049 C1     -3.906583  -31.666677    3.237135 C    791 MOH     0.1166 ****
5050 HC2    -3.069425  -31.349876    2.614881 H    791 MOH     0.0372 ****
5051 HC3    -3.602897  -31.915708    4.253955 H    791 MOH     0.0372 ****
5052 O1     -4.856901  -30.668918    3.201780 O    791 MOH    -0.6497 ****
5053 HO1    -5.184836  -30.613396    2.300926 H    791 MOH     0.4215 ****
5054 HC1   -12.527577  -21.073450    0.451134 H    792 MOH     0.0372 ****
5055 C1    -13.435172  -21.137137    1.050761 C    792 MOH     0.1166 ****
5056 HC2   -14.046008  -21.983844    0.738219 H    792 MOH     0.0372 ****
5057 HC3   -13.984232  -20.205106    0.918532 H    792 MOH     0.0372 ****
5058 O1    -13.063358  -21.320440    2.375172 O    792 MOH    -0.6497 ****
5059 HO1   -12.536237  -22.123056    2.373757 H    792 MOH     0.4215 ****
5060 HC1     3.002568  -29.226985    8.157184 H    793 MOH     0.0372 ****
5061 C1      2.749688  -28.362315    8.770953 C    793 MOH     0.1166 ****
5062 HC2     3.557401  -28.179012    9.478767 H    793 MOH     0.0372 ****
5063 HC3     1.831701  -28.595017    9.309768 H    793 MOH     0.0372 ****
5064 O1      2.557431  -27.253921    7.914646 O    793 MOH    -0.6497 ****
5065 HO1     1.872116  -27.524998    7.299464 H    793 MOH     0.4215 ****
5066 HC1    -3.397360  -33.299262   12.041322 H    794 MOH     0.0372 ****
5067 C1     -4.288789  -32.672601   12.009502 C    794 MOH     0.1166 ****
5068 HC2    -5.177331  -33.303344   11.969197 H    794 MOH     0.0372 ****
5069 HC3    -4.279551  -32.054513   11.111476 H    794 MOH     0.0372 ****
5070 O1     -4.278397  -31.825077   13.130973 O    794 MOH    -0.6497 ****
5071 HO1    -3.522645  -31.244956   13.014300 H    794 MOH     0.4215 ****
5072 HC1    -1.740365  -32.037366   10.627815 H    795 MOH     0.0372 ****
5073 C1     -1.515775  -30.971430   10.678020 C    795 MOH     0.1166 ****
5074 HC2    -1.874887  -30.423561    9.806864 H    795 MOH     0.0372 ****
5075 HC3    -0.429780  -30.924890   10.605895 H    795 MOH     0.0372 ****
5076 O1     -1.876619  -30.373346   11.944448 O    795 MOH    -0.6497 ****
5077 HO1    -1.948788  -29.424577   11.818583 H    795 MOH     0.4215 ****
5078 HC1     2.314366  -26.230851    4.603972 H    796 MOH     0.0372 ****
5079 C1      1.974884  -26.976720    3.884845 C    796 MOH     0.1166 ****
5080 HC2     1.468548  -27.814038    4.366385 H    796 MOH     0.0372 ****
5081 HC3     2.861694  -27.373538    3.389870 H    796 MOH     0.0372 ****
5082 O1      1.133685  -26.356183    2.930251 O    796 MOH    -0.6497 ****
5083 HO1     1.663115  -25.671142    2.514472 H    796 MOH     0.4215 ****
5084 HC1    -6.979241  -33.467052   -4.376991 H    797 MOH     0.0372 ****
5085 C1     -7.609707  -33.780586   -3.545433 C    797 MOH     0.1166 ****
5086 HC2    -8.586007  -34.093305   -3.915957 H    797 MOH     0.0372 ****
5087 HC3    -7.780026  -32.953475   -2.855297 H    797 MOH     0.0372 ****
5088 O1     -7.007531  -34.834684   -2.849640 O    797 MOH    -0.6497 ****
5089 HO1    -7.658205  -35.189043   -2.240114 H    797 MOH     0.4215 ****
5090 HC1    -4.317079  -28.734638   -1.233194 H    798 MOH     0.0372 ****
5091 C1     -3.660632  -28.459070   -0.408000 C    798 MOH     0.1166 ****
5092 HC2    -4.207382  -28.494996    0.535280 H    798 MOH     0.0372 ****
5093 HC3    -3.314221  -27.436408   -0.558614 H    798 MOH     0.0372 ****
5094 O1     -2.541727  -29.331088   -0.342947 O    798 MOH    -0.6497 ****
5095 HO1    -1.936664  -29.004490    0.327391 H    798 MOH     0.4215 ****
5096 HC1    -0.540631  -24.019778    6.534374 H    799 MOH     0.0372 ****
5097 C1     -0.852400  -24.438641    7.491797 C    799 MOH     0.1166 ****
5098 HC2    -1.379521  -23.692363    8.084352 H    799 MOH     0.0372 ****
5099 HC3     0.040184  -24.772180    8.020005 H    799 MOH     0.0372 ****
5100 O1     -1.667041  -25.552750    7.264815 O    799 MOH    -0.6497 ****
5101 HO1    -2.352933  -25.311476    6.639026 H    799 MOH     0.4215 ****
5102 HC1    -5.703297  -27.095521    5.326636 H    800 MOH     0.0372 ****
5103 C1     -5.121328  -26.853021    4.437095 C    800 MOH     0.1166 ****
5104 HC2    -5.157701  -27.674825    3.722210 H    800 MOH     0.0372 ****
5105 HC3    -4.094222  -26.709726    4.774385 H    800 MOH     0.0372 ****
5106 O1     -5.587250  -25.608680    3.905351 O    800 MOH    -0.6497 ****
5107 HO1    -5.171557  -24.931396    4.443459 H    800 MOH     0.4215 ****
5108 HC1    -8.208997  -31.661778    2.998133 H    801 MOH     0.0372 ****
5109 C1     -8.046184  -31.885906    4.052429 C    801 MOH     0.1166 ****
5110 HC2    -7.478649  -32.812630    4.144353 H    801 MOH     0.0372 ****
5111 HC3    -9.029989  -32.003482    4.506392 H    801 MOH     0.0372 ****
5112 O1     -7.353364  -30.809355    4.644277 O    801 MOH    -0.6497 ****
5113 HO1    -6.515051  -30.718724    4.186072 H    801 MOH     0.4215 ****
5114 HC1    -8.486702  -31.766698   -6.337798 H    802 MOH     0.0372 ****
5115 C1     -8.620070  -32.789360   -6.690644 C    802 MOH     0.1166 ****
5116 HC2    -9.618886  -32.866927   -7.119151 H    802 MOH     0.0372 ****
5117 HC3    -8.546747  -33.506244   -5.873229 H    802 MOH     0.0372 ****
5118 O1     -7.699774  -33.066560   -7.702514 O    802 MOH    -0.6497 ****
5119 HO1    -7.583727  -34.014513   -7.794438 H    802 MOH     0.4215 ****
5120 HC1    -5.351113  -24.485998   -7.027934 H    803 MOH     0.0372 ****
5121 C1     -6.198663  -25.150626   -6.858229 C    803 MOH     0.1166 ****
5122 HC2    -7.064111  -24.506818   -6.701958 H    803 MOH     0.0372 ****
5123 HC3    -5.965991  -25.752384   -5.980002 H    803 MOH     0.0372 ****
5124 O1     -6.332031  -25.852405   -8.073745 O    803 MOH    -0.6497 ****
5125 HO1    -5.486213  -26.258203   -8.278806 H    803 MOH     0.4215 ****
5126 HC1    -3.933718  -29.103694    7.553315 H    804 MOH     0.0372 ****
5127 C1     -3.870210  -30.026743    6.977023 C    804 MOH     0.1166 ****
5128 HC2    -2.838485  -30.230868    6.691352 H    804 MOH     0.0372 ****
5129 HC3    -4.487397  -29.914883    6.086068 H    804 MOH     0.0372 ****
5130 O1     -4.388093  -31.080024    7.742112 O    804 MOH    -0.6497 ****
5131 HO1    -4.138100  -31.904686    7.317848 H    804 MOH     0.4215 ****
5132 HC1   -15.984750  -29.796083   -0.929138 H    805 MOH     0.0372 ****
5133 C1    -16.151027  -28.725656   -0.810344 C    805 MOH     0.1166 ****
5134 HC2   -15.797689  -28.404773    0.169706 H    805 MOH     0.0372 ****
5135 HC3   -17.217971  -28.512551   -0.882469 H    805 MOH     0.0372 ****
5136 O1    -15.463981  -28.011222   -1.820093 O    805 MOH    -0.6497 ****
5137 HO1   -15.554625  -28.541128   -2.614881 H    805 MOH     0.4215 ****
5138 HC1    -9.321551  -23.480074   -3.778071 H    806 MOH     0.0372 ****
5139 C1     -8.450329  -24.135312   -3.797163 C    806 MOH     0.1166 ****
5140 HC2    -8.450907  -24.706860   -4.724887 H    806 MOH     0.0372 ****
5141 HC3    -8.478042  -24.844440   -2.969141 H    806 MOH     0.0372 ****
5142 O1     -7.271958  -23.350659   -3.723624 O    806 MOH    -0.6497 ****
5143 HO1    -7.301402  -22.839941   -2.911159 H    806 MOH     0.4215 ****
5144 HC1   -13.506763  -30.245156   -1.252993 H    807 MOH     0.0372 ****
5145 C1    -13.239450  -31.249855   -0.924188 C    807 MOH     0.1166 ****
5146 HC2   -12.294905  -31.539303   -1.384515 H    807 MOH     0.0372 ****
5147 HC3   -14.002130  -31.963473   -1.233901 H    807 MOH     0.0372 ****
5148 O1    -13.072018  -31.242099    0.504874 O    807 MOH    -0.6497 ****
5149 HO1   -13.900516  -31.054304    0.951766 H    807 MOH     0.4215 ****
5150 HC1     3.627838  -30.429684    6.109403 H    808 MOH     0.0372 ****
5151 C1      4.486358  -30.067976    5.543717 C    808 MOH     0.1166 ****
5152 HC2     4.138216  -29.548685    4.651349 H    808 MOH     0.0372 ****
5153 HC3     5.115670  -30.908560    5.250268 H    808 MOH     0.0372 ****
5154 O1      5.235759  -29.178403    6.339213 O    808 MOH    -0.6497 ****
5155 HO1     5.403190  -29.596858    7.187034 H    808 MOH     0.4215 ****
5156 HC1     4.426891  -29.108593   -3.822619 H    809 MOH     0.0372 ****
5157 C1      3.980022  -28.694629   -4.726301 C    809 MOH     0.1166 ****
5158 HC2     2.952338  -28.375787   -4.554475 H    809 MOH     0.0372 ****
5159 HC3     4.010621  -29.467035   -5.495634 H    809 MOH     0.0372 ****
5160 O1      4.790622  -27.630326   -5.114503 O    809 MOH    -0.6497 ****
5161 HO1     4.972487  -27.084090   -4.346585 H    809 MOH     0.4215 ****
5162 HC1    -2.347160  -31.360899   -9.228450 H    810 MOH     0.0372 ****
5163 C1     -3.271497  -30.845690   -9.490080 C    810 MOH     0.1166 ****
5164 HC2    -3.984525  -30.892638   -8.666301 H    810 MOH     0.0372 ****
5165 HC3    -3.707397  -31.291905  -10.383156 H    810 MOH     0.0372 ****
5166 O1     -3.033629  -29.496429   -9.769387 O    810 MOH    -0.6497 ****
5167 HO1    -2.529025  -29.466219  -10.585388 H    810 MOH     0.4215 ****
5168 HC1   -10.625208  -24.167564    0.823779 H    811 MOH     0.0372 ****
5169 C1    -10.995867  -24.564381    1.768474 C    811 MOH     0.1166 ****
5170 HC2   -10.141388  -24.687264    2.433862 H    811 MOH     0.0372 ****
5171 HC3   -11.467562  -25.540095    1.652509 H    811 MOH     0.0372 ****
5172 O1    -11.850923  -23.629084    2.330624 O    811 MOH    -0.6497 ****
5173 HO1   -11.666171  -23.627451    3.272490 H    811 MOH     0.4215 ****
5174 HC1   -11.337081  -28.842415    6.561951 H    812 MOH     0.0372 ****
5175 C1    -11.403476  -29.102877    7.618369 C    812 MOH     0.1166 ****
5176 HC2   -11.295512  -30.181061    7.742112 H    812 MOH     0.0372 ****
5177 HC3   -12.387281  -28.788118    7.966972 H    812 MOH     0.0372 ****
5178 O1    -10.419671  -28.383952    8.341739 O    812 MOH    -0.6497 ****
5179 HO1    -9.596947  -28.492955    7.858785 H    812 MOH     0.4215 ****
5180 HC1    -3.790536  -26.281474   11.410582 H    813 MOH     0.0372 ****
5181 C1     -3.352904  -27.184927   10.985611 C    813 MOH     0.1166 ****
5182 HC2    -3.109262  -26.989784    9.941921 H    813 MOH     0.0372 ****
5183 HC3    -4.058426  -28.011222   11.078949 H    813 MOH     0.0372 ****
5184 O1     -2.216679  -27.482540   11.733023 O    813 MOH    -0.6497 ****
5185 HO1    -1.589099  -26.756675   11.684940 H    813 MOH     0.4215 ****
5186 HC1    -7.010418  -33.479299   10.777722 H    814 MOH     0.0372 ****
5187 C1     -7.420914  -34.435825   11.100870 C    814 MOH     0.1166 ****
5188 HC2    -6.642069  -35.198433   11.122083 H    814 MOH     0.0372 ****
5189 HC3    -8.206110  -34.714658   10.398712 H    814 MOH     0.0372 ****
5190 O1     -8.016740  -34.291305   12.356691 O    814 MOH    -0.6497 ****
5191 HO1    -7.396088  -33.842232   12.935105 H    814 MOH     0.4215 ****
5192 HC1    -1.809647  -28.495404    7.608469 H    815 MOH     0.0372 ****
5193 C1     -0.884154  -28.195750    8.102030 C    815 MOH     0.1166 ****
5194 HC2    -0.440172  -29.049805    8.613975 H    815 MOH     0.0372 ****
5195 HC3    -1.130106  -27.443756    8.851563 H    815 MOH     0.0372 ****
5196 O1     -0.001963  -27.696462    7.076018 O    815 MOH    -0.6497 ****
5197 HO1    -0.192489  -26.758308    7.001064 H    815 MOH     0.4215 ****
5198 HC1    -3.392741  -24.626435    2.956414 H    816 MOH     0.0372 ****
5199 C1     -2.447041  -24.283506    3.376435 C    816 MOH     0.1166 ****
5200 HC2    -2.560779  -23.309018    3.852318 H    816 MOH     0.0372 ****
5201 HC3    -1.717271  -24.170013    2.574576 H    816 MOH     0.0372 ****
5202 O1     -2.005368  -25.205739    4.348707 O    816 MOH    -0.6497 ****
5203 HO1    -1.173984  -25.593983    4.066571 H    816 MOH     0.4215 ****
5204 HC1    -3.474725  -32.692197   -1.972828 H    817 MOH     0.0372 ****
5205 C1     -2.692993  -32.018995   -2.324260 C    817 MOH     0.1166 ****
5206 HC2    -2.133540  -32.453780   -3.152282 H    817 MOH     0.0372 ****
5207 HC3    -2.007678  -31.814054   -1.502602 H    817 MOH     0.0372 ****
5208 O1     -3.266879  -30.819562   -2.769737 O    817 MOH    -0.6497 ****
5209 HO1    -3.071734  -30.176162   -2.083844 H    817 MOH     0.4215 ****
5210 HC1     8.032905  -19.253234    6.896413 H    818 MOH     0.0372 ****
5211 C1      8.094104  -18.473480    7.654431 C    818 MOH     0.1166 ****
5212 HC2     8.454371  -18.919287    8.582155 H    818 MOH     0.0372 ****
5213 HC3     7.101062  -18.048085    7.800095 H    818 MOH     0.0372 ****
5214 O1      8.965326  -17.450818    7.226632 O    818 MOH    -0.6497 ****
5215 HO1     9.852136  -17.810893    7.160163 H    818 MOH     0.4215 ****
5216 HC1     7.654164  -25.357771   -6.516696 H    819 MOH     0.0372 ****
5217 C1      7.467102  -26.343691   -6.091725 C    819 MOH     0.1166 ****
5218 HC2     7.075081  -26.248977   -5.079148 H    819 MOH     0.0372 ****
5219 HC3     8.424349  -26.860125   -6.023135 H    819 MOH     0.0372 ****
5220 O1      6.625903  -27.147532   -6.940960 O    819 MOH    -0.6497 ****
5221 HO1     5.909988  -27.493726   -6.403559 H    819 MOH     0.4215 ****
5222 HC1    10.284571  -24.885836    0.120208 H    820 MOH     0.0372 ****
5223 C1      9.435866  -24.451052    0.648417 C    820 MOH     0.1166 ****
5224 HC2     9.299612  -23.423899    0.310420 H    820 MOH     0.0372 ****
5225 HC3     9.600411  -24.463299    1.726048 H    820 MOH     0.0372 ****
5226 O1      8.270196  -25.149156    0.314663 O    820 MOH    -0.6497 ****
5227 HO1     8.297332  -25.949731    0.844286 H    820 MOH     0.4215 ****
5228 HC1    18.361124  -16.115438   -3.499471 H    821 MOH     0.0372 ****
5229 C1     18.166557  -15.374059   -2.724482 C    821 MOH     0.1166 ****
5230 HC2    17.102501  -15.332010   -2.491844 H    821 MOH     0.0372 ****
5231 HC3    18.467934  -14.385690   -3.071672 H    821 MOH     0.0372 ****
5232 O1     18.836283  -15.704332   -1.513208 O    821 MOH    -0.6497 ****
5233 HO1    18.618622  -16.598804   -1.240972 H    821 MOH     0.4215 ****
5234 HC1     9.178946  -17.810077   -9.493615 H    822 MOH     0.0372 ****
5235 C1      8.386821  -18.342432   -8.967528 C    822 MOH     0.1166 ****
5236 HC2     8.413956  -18.084828   -7.908989 H    822 MOH     0.0372 ****
5237 HC3     8.552521  -19.410002   -9.109656 H    822 MOH     0.0372 ****
5238 O1      7.158220  -17.926836   -9.523314 O    822 MOH    -0.6497 ****
5239 HO1     6.463667  -18.285686   -8.965407 H    822 MOH     0.4215 ****
5240 HC1     9.875230   -9.919045  -10.612966 H    823 MOH     0.0372 ****
5241 C1     10.412743   -9.576525  -11.497556 C    823 MOH     0.1166 ****
5242 HC2    10.084808  -10.150522  -12.364469 H    823 MOH     0.0372 ****
5243 HC3    11.472181   -9.761053  -11.319365 H    823 MOH     0.0372 ****
5244 O1     10.152358   -8.195829  -11.766257 O    823 MOH    -0.6497 ****
5245 HO1    10.411588   -7.990889  -12.667111 H    823 MOH     0.4215 ****
5246 HC1    13.244069  -11.751264   -1.970706 H    824 MOH     0.0372 ****
5247 C1     13.292566  -12.838837   -2.021618 C    824 MOH     0.1166 ****
5248 HC2    12.914402  -13.193605   -2.979748 H    824 MOH     0.0372 ****
5249 HC3    12.685771  -13.285461   -1.233901 H    824 MOH     0.0372 ****
5250 O1     14.629132  -13.273213   -1.948079 O    824 MOH    -0.6497 ****
5251 HO1    14.596800  -14.232597   -1.926866 H    824 MOH     0.4215 ****
5252 HC1     4.333822  -12.775967   -7.544122 H    825 MOH     0.0372 ****
5253 C1      4.379433  -13.230756   -8.534072 C    825 MOH     0.1166 ****
5254 HC2     5.296842  -13.809652   -8.642966 H    825 MOH     0.0372 ****
5255 HC3     4.369041  -12.453043   -9.297040 H    825 MOH     0.0372 ****
5256 O1      3.276116  -14.067256   -8.751153 O    825 MOH    -0.6497 ****
5257 HO1     3.535347  -14.954788   -8.493767 H    825 MOH     0.4215 ****
5258 HC1    12.440975  -17.332834   -9.048845 H    826 MOH     0.0372 ****
5259 C1     12.639583  -16.372226   -8.574377 C    826 MOH     0.1166 ****
5260 HC2    13.704217  -16.155038   -8.657815 H    826 MOH     0.0372 ****
5261 HC3    12.410375  -16.407336   -7.509474 H    826 MOH     0.0372 ****
5262 O1     11.846304  -15.376509   -9.225622 O    826 MOH    -0.6497 ****
5263 HO1    11.893647  -14.600429   -8.662058 H    826 MOH     0.4215 ****
5264 HC1    -4.864522  -13.937433    3.556747 H    827 MOH     0.0372 ****
5265 C1     -3.824137  -13.910081    3.230771 C    827 MOH     0.1166 ****
5266 HC2    -3.239859  -14.549806    3.893330 H    827 MOH     0.0372 ****
5267 HC3    -3.482923  -12.876396    3.284511 H    827 MOH     0.0372 ****
5268 O1     -3.757165  -14.392222    1.907774 O    827 MOH    -0.6497 ****
5269 HO1    -4.351835  -15.145032    1.863934 H    827 MOH     0.4215 ****
5270 HC1    11.282233  -22.800096   -4.036872 H    828 MOH     0.0372 ****
5271 C1     11.329575  -22.076680   -3.222285 C    828 MOH     0.1166 ****
5272 HC2    10.536296  -21.349181   -3.393405 H    828 MOH     0.0372 ****
5273 HC3    12.290286  -21.563103   -3.268954 H    828 MOH     0.0372 ****
5274 O1     11.144246  -22.718446   -1.928280 O    828 MOH    -0.6497 ****
5275 HO1    10.952566  -22.042795   -1.272792 H    828 MOH     0.4215 ****
5276 HC1    18.040117  -14.085627    0.282136 H    829 MOH     0.0372 ****
5277 C1     18.122679  -13.145840    0.828022 C    829 MOH     0.1166 ****
5278 HC2    17.295913  -12.490193    0.555079 H    829 MOH     0.0372 ****
5279 HC3    19.079925  -12.683703    0.583363 H    829 MOH     0.0372 ****
5280 O1     18.081687  -13.503874    2.169404 O    829 MOH    -0.6497 ****
5281 HO1    18.305699  -12.760862    2.733675 H    829 MOH     0.4215 ****
5282 HC1     6.021994  -20.115455    8.975307 H    830 MOH     0.0372 ****
5283 C1      6.321639  -21.162612    8.960457 C    830 MOH     0.1166 ****
5284 HC2     6.955570  -21.351222    8.093544 H    830 MOH     0.0372 ****
5285 HC3     5.453881  -21.816625    8.881261 H    830 MOH     0.0372 ****
5286 O1      7.026584  -21.473697   10.154054 O    830 MOH    -0.6497 ****
5287 HO1     7.460751  -22.322037   10.035260 H    830 MOH     0.4215 ****
5288 HC1    -1.728933  -16.847835   -5.072077 H    831 MOH     0.0372 ****
5289 C1     -2.269333  -15.978267   -5.445429 C    831 MOH     0.1166 ****
5290 HC2    -2.712738  -16.307723   -6.385174 H    831 MOH     0.0372 ****
5291 HC3    -1.546490  -15.175242   -5.591800 H    831 MOH     0.0372 ****
5292 O1     -3.260643  -15.639829   -4.451944 O    831 MOH    -0.6497 ****
5293 HO1    -3.896306  -16.353855   -4.369213 H    831 MOH     0.4215 ****
5294 HC1    -3.285469  -23.619858   -9.381186 H    832 MOH     0.0372 ****
5295 C1     -2.872664  -22.612301   -9.417955 C    832 MOH     0.1166 ****
5296 HC2    -2.958112  -22.141591   -8.438612 H    832 MOH     0.0372 ****
5297 HC3    -3.449437  -22.024424  -10.132133 H    832 MOH     0.0372 ****
5298 O1     -1.533211  -22.667823   -9.849290 O    832 MOH    -0.6497 ****
5299 HO1    -1.499725  -23.328369  -10.545083 H    832 MOH     0.4215 ****
5300 HC1    12.827799  -25.463099   -3.432296 H    833 MOH     0.0372 ****
5301 C1     12.147681  -26.031789   -2.798021 C    833 MOH     0.1166 ****
5302 HC2    12.502174  -25.994638   -1.767767 H    833 MOH     0.0372 ****
5303 HC3    12.092832  -27.068331   -3.129654 H    833 MOH     0.0372 ****
5304 O1     10.915038  -25.408802   -2.880046 O    833 MOH    -0.6497 ****
5305 HO1    11.017229  -24.515963   -2.544170 H    833 MOH     0.4215 ****
5306 HC1     3.929099   -2.293784    5.882421 H    834 MOH     0.0372 ****
5307 C1      3.587308   -2.963311    5.093290 C    834 MOH     0.1166 ****
5308 HC2     3.089055   -3.839412    5.509069 H    834 MOH     0.0372 ****
5309 HC3     4.459684   -3.281336    4.522655 H    834 MOH     0.0372 ****
5310 O1      2.806153   -2.233363    4.171223 O    834 MOH    -0.6497 ****
5311 HO1     2.833289   -2.720403    3.344615 H    834 MOH     0.4215 ****
5312 HC1     6.695762  -18.999712    1.551392 H    835 MOH     0.0372 ****
5313 C1      6.555466  -19.154030    0.482247 C    835 MOH     0.1166 ****
5314 HC2     6.359167  -18.199545   -0.007071 H    835 MOH     0.0372 ****
5315 HC3     5.721195  -19.832947    0.306177 H    835 MOH     0.0372 ****
5316 O1      7.730951  -19.708431   -0.069296 O    835 MOH    -0.6497 ****
5317 HO1     8.377583  -19.809268    0.632861 H    835 MOH     0.4215 ****
5318 HC1    13.157466  -25.088735    1.796759 H    836 MOH     0.0372 ****
5319 C1     12.991189  -25.001778    2.870854 C    836 MOH     0.1166 ****
5320 HC2    13.063358  -23.945640    3.130362 H    836 MOH     0.0372 ****
5321 HC3    13.778118  -25.555771    3.383506 H    836 MOH     0.0372 ****
5322 O1     11.665593  -25.520662    3.104906 O    836 MOH    -0.6497 ****
5323 HO1    11.354401  -25.172018    3.943535 H    836 MOH     0.4215 ****
5324 HC1    12.023550   -7.691643   10.977833 H    837 MOH     0.0372 ****
5325 C1     11.312255   -8.517529   10.967226 C    837 MOH     0.1166 ****
5326 HC2    11.674253   -9.248702   10.243856 H    837 MOH     0.0372 ****
5327 HC3    10.323254   -8.145207   10.697112 H    837 MOH     0.0372 ****
5328 O1     11.248746   -9.091118   12.252039 O    837 MOH    -0.6497 ****
5329 HO1    10.972773   -8.407302   12.866515 H    837 MOH     0.4215 ****
5330 HC1     7.953231   -6.161936   -6.030207 H    838 MOH     0.0372 ****
5331 C1      7.372417   -5.780633   -5.190164 C    838 MOH     0.1166 ****
5332 HC2     7.669752   -4.773484   -4.898129 H    838 MOH     0.0372 ****
5333 HC3     7.580263   -6.435871   -4.343757 H    838 MOH     0.0372 ****
5334 O1      5.993127   -5.824315   -5.475128 O    838 MOH    -0.6497 ****
5335 HO1     5.587827   -6.499150   -4.925706 H    838 MOH     0.4215 ****
5336 HC1    -3.469067  -16.518787    4.995709 H    839 MOH     0.0372 ****
5337 C1     -3.860510  -17.287927    4.331029 C    839 MOH     0.1166 ****
5338 HC2    -3.361102  -17.254042    3.363000 H    839 MOH     0.0372 ****
5339 HC3    -4.932072  -17.125444    4.206578 H    839 MOH     0.0372 ****
5340 O1     -3.719637  -18.554721    4.915806 O    839 MOH    -0.6497 ****
5341 HO1    -4.165929  -18.555130    5.765042 H    839 MOH     0.4215 ****
5342 HC1    12.751012  -18.950722    0.615183 H    840 MOH     0.0372 ****
5343 C1     12.734268  -19.957871    0.197283 C    840 MOH     0.1166 ****
5344 HC2    13.235986  -20.616375    0.905097 H    840 MOH     0.0372 ****
5345 HC3    13.285638  -19.986448   -0.743169 H    840 MOH     0.0372 ****
5346 O1     11.391352  -20.393472    0.048084 O    840 MOH    -0.6497 ****
5347 HO1    10.899449  -20.132601    0.830851 H    840 MOH     0.4215 ****
5348 HC1     6.885710  -15.159729   -0.253144 H    841 MOH     0.0372 ****
5349 C1      5.822231  -14.958871   -0.384666 C    841 MOH     0.1166 ****
5350 HC2     5.240262  -15.879879   -0.357796 H    841 MOH     0.0372 ****
5351 HC3     5.657109  -14.488160   -1.354109 H    841 MOH     0.0372 ****
5352 O1      5.371898  -14.068481    0.594677 O    841 MOH    -0.6497 ****
5353 HO1     5.482172  -13.174009    0.264458 H    841 MOH     0.4215 ****
5354 HC1    10.598650  -12.232180   -3.049751 H    842 MOH     0.0372 ****
5355 C1     10.194505  -11.886394   -4.000810 C    842 MOH     0.1166 ****
5356 HC2     9.261507  -12.409768   -4.212942 H    842 MOH     0.0372 ****
5357 HC3    10.915615  -12.031322   -4.804790 H    842 MOH     0.0372 ****
5358 O1      9.947976  -10.520395   -3.846661 O    842 MOH    -0.6497 ****
5359 HO1    10.772432  -10.064790   -3.658570 H    842 MOH     0.4215 ****
5360 HC1     6.366095  -23.487994    2.153847 H    843 MOH     0.0372 ****
5361 C1      6.180188  -22.902158    1.253701 C    843 MOH     0.1166 ****
5362 HC2     6.198086  -23.525961    0.359918 H    843 MOH     0.0372 ****
5363 HC3     6.927857  -22.116688    1.144806 H    843 MOH     0.0372 ****
5364 O1      4.937730  -22.313872    1.383101 O    843 MOH    -0.6497 ****
5365 HO1     4.639240  -22.203236    0.477297 H    843 MOH     0.4215 ****
5366 HC1     7.550818  -19.912964    3.573011 H    844 MOH     0.0372 ****
5367 C1      8.304837  -20.666590    3.345322 C    844 MOH     0.1166 ****
5368 HC2     7.818708  -21.556163    2.945807 H    844 MOH     0.0372 ****
5369 HC3     8.793853  -20.956038    4.275168 H    844 MOH     0.0372 ****
5370 O1      9.238990  -20.124436    2.400628 O    844 MOH    -0.6497 ****
5371 HO1     9.455496  -19.226698    2.660136 H    844 MOH     0.4215 ****
5372 HC1     5.796250  -11.560204   -5.513311 H    845 MOH     0.0372 ****
5373 C1      5.558959  -11.846794   -4.488007 C    845 MOH     0.1166 ****
5374 HC2     6.321062  -12.509381   -4.078592 H    845 MOH     0.0372 ****
5375 HC3     4.605754  -12.375475   -4.507098 H    845 MOH     0.0372 ****
5376 O1      5.457346  -10.720437   -3.650085 O    845 MOH    -0.6497 ****
5377 HO1     6.230995  -10.163994   -3.769586 H    845 MOH     0.4215 ****
5378 HC1     3.487427  -26.542508    0.838629 H    846 MOH     0.0372 ****
5379 C1      3.080395  -25.541891    0.693672 C    846 MOH     0.1166 ****
5380 HC2     2.034813  -25.587615    0.388202 H    846 MOH     0.0372 ****
5381 HC3     3.636960  -25.084245   -0.123036 H    846 MOH     0.0372 ****
5382 O1      3.235124  -24.718046    1.850499 O    846 MOH    -0.6497 ****
5383 HO1     3.518026  -23.837863    1.590283 H    846 MOH     0.4215 ****
5384 HC1    12.838192  -10.344848   -4.716402 H    847 MOH     0.0372 ****
5385 C1     13.258503   -9.461399   -4.235569 C    847 MOH     0.1166 ****
5386 HC2    13.511959   -8.719612   -4.992881 H    847 MOH     0.0372 ****
5387 HC3    14.145313   -9.744315   -3.669177 H    847 MOH     0.0372 ****
5388 O1     12.253336   -8.964969   -3.412497 O    847 MOH    -0.6497 ****
5389 HO1    12.609561   -8.768602   -2.543463 H    847 MOH     0.4215 ****
5390 HC1     7.189396   -8.037021    7.859492 H    848 MOH     0.0372 ****
5391 C1      7.146673   -7.162961    7.209661 C    848 MOH     0.1166 ****
5392 HC2     7.947457   -6.462815    7.447956 H    848 MOH     0.0372 ****
5393 HC3     6.207324   -6.646935    7.404822 H    848 MOH     0.0372 ****
5394 O1      7.147250   -7.517321    5.818075 O    848 MOH    -0.6497 ****
5395 HO1     7.256369   -6.724911    5.287038 H    848 MOH     0.4215 ****
5396 HC1     4.856901  -26.974434    3.874945 H    849 MOH     0.0372 ****
5397 C1      5.933082  -26.966269    3.705240 C    849 MOH     0.1166 ****
5398 HC2     6.353393  -26.106090    4.224963 H    849 MOH     0.0372 ****
5399 HC3     6.136887  -26.905849    2.636094 H    849 MOH     0.0372 ****
5400 O1      6.526598  -28.110997    4.205871 O    849 MOH    -0.6497 ****
5401 HO1     6.064718  -28.372276    5.004902 H    849 MOH     0.4215 ****
5402 HC1     1.503074  -12.306481   -3.526341 H    850 MOH     0.0372 ****
5403 C1      0.920527  -13.179316   -3.230771 C    850 MOH     0.1166 ****
5404 HC2     1.256545  -14.094201   -3.717967 H    850 MOH     0.0372 ****
5405 HC3    -0.099651  -12.999279   -3.568061 H    850 MOH     0.0372 ****
5406 O1      0.913599  -13.326286   -1.827871 O    850 MOH    -0.6497 ****
5407 HO1     0.727115  -12.464474   -1.446740 H    850 MOH     0.4215 ****
5408 HC1     6.166332  -16.048485   -4.941969 H    851 MOH     0.0372 ****
5409 C1      6.180766  -15.340991   -5.771405 C    851 MOH     0.1166 ****
5410 HC2     5.190033  -14.909881   -5.912827 H    851 MOH     0.0372 ****
5411 HC3     6.519670  -15.834155   -6.682159 H    851 MOH     0.0372 ****
5412 O1      7.057761  -14.289343   -5.464521 O    851 MOH    -0.6497 ****
5413 HO1     7.254060  -14.282403   -4.524776 H    851 MOH     0.4215 ****
5414 HC1    12.297792  -19.883161    8.387701 H    852 MOH     0.0372 ****
5415 C1     12.372847  -18.841312    8.077988 C    852 MOH     0.1166 ****
5416 HC2    13.411500  -18.616775    7.834743 H    852 MOH     0.0372 ****
5417 HC3    12.010849  -18.239962    8.913081 H    852 MOH     0.0372 ****
5418 O1     11.484882  -18.683728    7.001772 O    852 MOH    -0.6497 ****
5419 HO1    11.852077  -19.204244    6.284058 H    852 MOH     0.4215 ****
5420 HC1     2.022689  -23.795813    8.936416 H    853 MOH     0.0372 ****
5421 C1      3.015154  -23.774992    8.485989 C    853 MOH     0.1166 ****
5422 HC2     3.538233  -22.863782    8.775902 H    853 MOH     0.0372 ****
5423 HC3     2.955110  -23.830514    7.399873 H    853 MOH     0.0372 ****
5424 O1      3.750121  -24.839704    8.934294 O    853 MOH    -0.6497 ****
5425 HO1     3.303252  -25.635788    8.638724 H    853 MOH     0.4215 ****
5426 HC1    -2.630754  -19.504715   -7.158042 H    854 MOH     0.0372 ****
5427 C1     -1.842671  -19.470422   -7.910403 C    854 MOH     0.1166 ****
5428 HC2    -2.262982  -19.078912   -8.837420 H    854 MOH     0.0372 ****
5429 HC3    -1.444877  -20.468181   -8.097080 H    854 MOH     0.0372 ****
5430 O1     -0.836350  -18.570235   -7.560386 O    854 MOH    -0.6497 ****
5431 HO1    -0.009007  -19.035230   -7.703928 H    854 MOH     0.4215 ****
5432 HC1    10.920234  -11.409968   -7.590791 H    855 MOH     0.0372 ****
5433 C1     11.663861  -11.930893   -8.193246 C    855 MOH     0.1166 ****
5434 HC2    12.579539  -11.341383   -8.241329 H    855 MOH     0.0372 ****
5435 HC3    11.327843  -12.052143   -9.223501 H    855 MOH     0.0372 ****
5436 O1     12.002188  -13.159720   -7.609176 O    855 MOH    -0.6497 ****
5437 HO1    11.298398  -13.431206   -7.015913 H    855 MOH     0.4215 ****
5438 HC1    11.636148  -17.087069   -2.930957 H    856 MOH     0.0372 ****
5439 C1     11.596888  -18.156679   -3.136018 C    856 MOH     0.1166 ****
5440 HC2    10.818620  -18.584932   -2.504572 H    856 MOH     0.0372 ****
5441 HC3    12.565682  -18.593097   -2.892066 H    856 MOH     0.0372 ****
5442 O1     11.308213  -18.448577   -4.504270 O    856 MOH    -0.6497 ****
5443 HO1    11.737762  -19.263032   -4.776506 H    856 MOH     0.4215 ****
5444 HC1    15.797689  -18.406936   -5.177436 H    857 MOH     0.0372 ****
5445 C1     15.275187  -17.477763   -4.949747 C    857 MOH     0.1166 ****
5446 HC2    14.242885  -17.690868   -4.671147 H    857 MOH     0.0372 ****
5447 HC3    15.315602  -16.831506   -5.825853 H    857 MOH     0.0372 ****
5448 O1     15.962811  -16.914380   -3.883430 O    857 MOH    -0.6497 ****
5449 HO1    16.425269  -17.629631   -3.440781 H    857 MOH     0.4215 ****
5450 HC1     9.197998  -23.192830    4.462551 H    858 MOH     0.0372 ****
5451 C1      9.449145  -23.713347    5.386740 C    858 MOH     0.1166 ****
5452 HC2     8.782306  -24.566994    5.507655 H    858 MOH     0.0372 ****
5453 HC3     9.326170  -23.043411    6.237389 H    858 MOH     0.0372 ****
5454 O1     10.789175  -24.144049    5.289866 O    858 MOH    -0.6497 ****
5455 HO1    10.979124  -24.699675    6.048592 H    858 MOH     0.4215 ****
5456 HC1    10.670819  -16.262407   -5.558566 H    859 MOH     0.0372 ****
5457 C1      9.733779  -16.006436   -6.051420 C    859 MOH     0.1166 ****
5458 HC2     8.895467  -16.338342   -5.438358 H    859 MOH     0.0372 ****
5459 HC3     9.715304  -16.505315   -7.020156 H    859 MOH     0.0372 ****
5460 O1      9.703180  -14.622882   -6.268501 O    859 MOH    -0.6497 ****
5461 HO1     8.786925  -14.381608   -6.420529 H    859 MOH     0.4215 ****
5462 HC1    13.182292  -23.620675   -0.593262 H    860 MOH     0.0372 ****
5463 C1     14.053514  -23.117304   -1.012577 C    860 MOH     0.1166 ****
5464 HC2    13.755601  -22.168127   -1.455933 H    860 MOH     0.0372 ****
5465 HC3    14.492300  -23.728860   -1.801708 H    860 MOH     0.0372 ****
5466 O1     15.022308  -22.842145   -0.026870 O    860 MOH    -0.6497 ****
5467 HO1    15.452434  -23.680279    0.156271 H    860 MOH     0.4215 ****
5468 HC1     4.627116  -17.296909  -12.341134 H    861 MOH     0.0372 ****
5469 C1      5.550877  -17.108706  -12.889142 C    861 MOH     0.1166 ****
5470 HC2     6.141506  -18.023591  -12.851666 H    861 MOH     0.0372 ****
5471 HC3     6.073379  -16.285269  -12.401946 H    861 MOH     0.0372 ****
5472 O1      5.277790  -16.756388  -14.243252 O    861 MOH    -0.6497 ****
5473 HO1     6.059522  -16.334259  -14.606705 H    861 MOH     0.4215 ****
5474 HC1     8.268464  -22.375109   -2.247185 H    862 MOH     0.0372 ****
5475 C1      7.770211  -23.150781   -2.827013 C    862 MOH     0.1166 ****
5476 HC2     8.497095  -23.896242   -3.149453 H    862 MOH     0.0372 ****
5477 HC3     7.307753  -22.676805   -3.693218 H    862 MOH     0.0372 ****
5478 O1      6.795066  -23.781524   -2.030103 O    862 MOH    -0.6497 ****
5479 HO1     7.266761  -24.150581   -1.280570 H    862 MOH     0.4215 ****
5480 HC1     7.592964  -10.676346   -6.540738 H    863 MOH     0.0372 ****
5481 C1      8.185903  -11.014784   -7.389973 C    863 MOH     0.1166 ****
5482 HC2     8.553098  -12.010501   -7.141778 H    863 MOH     0.0372 ****
5483 HC3     9.032876  -10.344848   -7.542001 H    863 MOH     0.0372 ****
5484 O1      7.381654  -11.065815   -8.560235 O    863 MOH    -0.6497 ****
5485 HO1     7.788686  -11.716154   -9.137941 H    863 MOH     0.4215 ****
5486 HC1    14.600842  -12.824548    8.157184 H    864 MOH     0.0372 ****
5487 C1     14.347962  -11.959879    8.770953 C    864 MOH     0.1166 ****
5488 HC2    15.155675  -11.776575    9.478767 H    864 MOH     0.0372 ****
5489 HC3    13.429975  -12.192580    9.309768 H    864 MOH     0.0372 ****
5490 O1     14.155705  -10.851484    7.914646 O    864 MOH    -0.6497 ****
5491 HO1    13.470390  -11.122561    7.299464 H    864 MOH     0.4215 ****
5492 HC1    10.860189  -20.084020    4.623064 H    865 MOH     0.0372 ****
5493 C1     11.682914  -20.774776    4.437802 C    865 MOH     0.1166 ****
5494 HC2    11.958310  -20.653526    3.390577 H    865 MOH     0.0372 ****
5495 HC3    11.374609  -21.814584    4.544576 H    865 MOH     0.0372 ****
5496 O1     12.772951  -20.464099    5.322393 O    865 MOH    -0.6497 ****
5497 HO1    13.383787  -21.204661    5.335121 H    865 MOH     0.4215 ****
5498 HC1     6.607427  -18.742516   -4.572152 H    866 MOH     0.0372 ****
5499 C1      7.534652  -18.919287   -4.028387 C    866 MOH     0.1166 ****
5500 HC2     7.468834  -19.843970   -3.454924 H    866 MOH     0.0372 ****
5501 HC3     7.758087  -18.082787   -3.365828 H    866 MOH     0.0372 ****
5502 O1      8.538087  -19.021349   -4.958940 O    866 MOH    -0.6497 ****
5503 HO1     9.348109  -18.680462   -4.572152 H    866 MOH     0.4215 ****
5504 HC1    15.694343  -19.126269    3.558162 H    867 MOH     0.0372 ****
5505 C1     14.862959  -18.442861    3.388456 C    867 MOH     0.1166 ****
5506 HC2    13.940931  -18.902957    3.745545 H    867 MOH     0.0372 ****
5507 HC3    14.792522  -18.254659    2.317189 H    867 MOH     0.0372 ****
5508 O1     15.190894  -17.222199    4.040408 O    867 MOH    -0.6497 ****
5509 HO1    15.804040  -17.419383    4.752465 H    867 MOH     0.4215 ****
5510 HC1     8.200914  -16.896825   12.041322 H    868 MOH     0.0372 ****
5511 C1      7.309485  -16.270164   12.009502 C    868 MOH     0.1166 ****
5512 HC2     6.420943  -16.900908   11.969197 H    868 MOH     0.0372 ****
5513 HC3     7.318723  -15.652076   11.111476 H    868 MOH     0.0372 ****
5514 O1      7.319878  -15.422641   13.130973 O    868 MOH    -0.6497 ****
5515 HO1     8.075629  -14.842520   13.014300 H    868 MOH     0.4215 ****
5516 HC1    15.454166  -16.299966   -0.419314 H    869 MOH     0.0372 ****
5517 C1     14.444380  -16.620849   -0.675287 C    869 MOH     0.1166 ****
5518 HC2    13.746941  -16.190147    0.043841 H    869 MOH     0.0372 ****
5519 HC3    14.362974  -17.707198   -0.640638 H    869 MOH     0.0372 ****
5520 O1     14.089310  -16.161570   -1.947372 O    869 MOH    -0.6497 ****
5521 HO1    14.688022  -16.569002   -2.576697 H    869 MOH     0.4215 ****
5522 HC1     9.857909  -15.634930   10.627815 H    870 MOH     0.0372 ****
5523 C1     10.082499  -14.568993   10.678020 C    870 MOH     0.1166 ****
5524 HC2     9.723387  -14.021124    9.806864 H    870 MOH     0.0372 ****
5525 HC3    11.168494  -14.522453   10.605895 H    870 MOH     0.0372 ****
5526 O1      9.721655  -13.970910   11.944448 O    870 MOH    -0.6497 ****
5527 HO1     9.649486  -13.022141   11.818583 H    870 MOH     0.4215 ****
5528 HC1     8.944541  -29.085894    1.995456 H    871 MOH     0.0372 ****
5529 C1      9.525933  -28.328594    2.522250 C    871 MOH     0.1166 ****
5530 HC2    10.579597  -28.572726    2.385071 H    871 MOH     0.0372 ****
5531 HC3     9.296148  -28.317979    3.587153 H    871 MOH     0.0372 ****
5532 O1      9.397761  -27.068331    1.970000 O    871 MOH    -0.6497 ****
5533 HO1    10.196237  -26.591906    2.211123 H    871 MOH     0.4215 ****
5534 HC1     9.165089  -29.408411   -2.667206 H    872 MOH     0.0372 ****
5535 C1      9.132180  -28.323287   -2.766201 C    872 MOH     0.1166 ****
5536 HC2     9.577317  -27.854209   -1.888682 H    872 MOH     0.0372 ****
5537 HC3     8.094682  -27.997504   -2.841155 H    872 MOH     0.0372 ****
5538 O1      9.818072  -27.946065   -3.931513 O    872 MOH    -0.6497 ****
5539 HO1     9.919686  -26.992805   -3.891208 H    872 MOH     0.4215 ****
5540 HC1    17.598445  -20.591472   -1.484217 H    873 MOH     0.0372 ****
5541 C1     16.692582  -20.266915   -1.995455 C    873 MOH     0.1166 ****
5542 HC2    15.806927  -20.659650   -1.496238 H    873 MOH     0.0372 ****
5543 HC3    16.700088  -20.615151   -3.028538 H    873 MOH     0.0372 ****
5544 O1     16.599629  -18.874788   -1.981313 O    873 MOH    -0.6497 ****
5545 HO1    16.869828  -18.589423   -1.105208 H    873 MOH     0.4215 ****
5546 HC1    10.132728  -16.027665    0.500632 H    874 MOH     0.0372 ****
5547 C1     10.796104  -16.849468    0.770039 C    874 MOH     0.1166 ****
5548 HC2    11.812240  -16.463266    0.847821 H    874 MOH     0.0372 ****
5549 HC3    10.782247  -17.632080    0.011314 H    874 MOH     0.0372 ****
5550 O1     10.417939  -17.276496    2.056974 O    874 MOH    -0.6497 ****
5551 HO1    10.471633  -16.507356    2.628316 H    874 MOH     0.4215 ****
5552 HC1     4.619033  -17.064615   -4.376991 H    875 MOH     0.0372 ****
5553 C1      3.988567  -17.378150   -3.545433 C    875 MOH     0.1166 ****
5554 HC2     3.012267  -17.690868   -3.915957 H    875 MOH     0.0372 ****
5555 HC3     3.818248  -16.551039   -2.855297 H    875 MOH     0.0372 ****
5556 O1      4.590743  -18.432247   -2.849640 O    875 MOH    -0.6497 ****
5557 HO1     3.940069  -18.786607   -2.240114 H    875 MOH     0.4215 ****
5558 HC1    11.057643   -7.617342    6.534374 H    876 MOH     0.0372 ****
5559 C1     10.745874   -8.036204    7.491797 C    876 MOH     0.1166 ****
5560 HC2    10.218753   -7.289926    8.084352 H    876 MOH     0.0372 ****
5561 HC3    11.638458   -8.369743    8.020005 H    876 MOH     0.0372 ****
5562 O1      9.931233   -9.150314    7.264815 O    876 MOH    -0.6497 ****
5563 HO1     9.245341   -8.909039    6.639026 H    876 MOH     0.4215 ****
5564 HC1     3.111572  -15.364261   -6.337798 H    877 MOH     0.0372 ****
5565 C1      2.978204  -16.386923   -6.690644 C    877 MOH     0.1166 ****
5566 HC2     1.979388  -16.464490   -7.119151 H    877 MOH     0.0372 ****
5567 HC3     3.051527  -17.103807   -5.873229 H    877 MOH     0.0372 ****
5568 O1      3.898500  -16.664124   -7.702514 O    877 MOH    -0.6497 ****
5569 HO1     4.014547  -17.612076   -7.794438 H    877 MOH     0.4215 ****
5570 HC1     6.247161   -8.083561   -7.027934 H    878 MOH     0.0372 ****
5571 C1      5.399611   -8.748189   -6.858229 C    878 MOH     0.1166 ****
5572 HC2     4.534163   -8.104382   -6.701958 H    878 MOH     0.0372 ****
5573 HC3     5.632283   -9.349947   -5.980002 H    878 MOH     0.0372 ****
5574 O1      5.266243   -9.449968   -8.073745 O    878 MOH    -0.6497 ****
5575 HO1     6.112061   -9.855767   -8.278806 H    878 MOH     0.4215 ****
5576 HC1     4.135791  -26.889519   -1.617860 H    879 MOH     0.0372 ****
5577 C1      5.170980  -26.585374   -1.774131 C    879 MOH     0.1166 ****
5578 HC2     5.759877  -27.488011   -1.941715 H    879 MOH     0.0372 ****
5579 HC3     5.543948  -26.028523   -0.915703 H    879 MOH     0.0372 ****
5580 O1      5.168671  -25.853793   -2.950756 O    879 MOH    -0.6497 ****
5581 HO1     5.806065  -25.144665   -2.841155 H    879 MOH     0.4215 ****
5582 HC1    17.198341  -21.697417    2.952878 H    880 MOH     0.0372 ****
5583 C1     17.582279  -21.100558    2.125563 C    880 MOH     0.1166 ****
5584 HC2    18.269903  -21.717829    1.547150 H    880 MOH     0.0372 ****
5585 HC3    18.083419  -20.238746    2.567505 H    880 MOH     0.0372 ****
5586 O1     16.517067  -20.660874    1.338553 O    880 MOH    -0.6497 ****
5587 HO1    15.987637  -21.416950    1.076924 H    880 MOH     0.4215 ****
5588 HC1    -4.386476  -13.393647   -0.929138 H    881 MOH     0.0372 ****
5589 C1     -4.552753  -12.323220   -0.810344 C    881 MOH     0.1166 ****
5590 HC2    -4.199415  -12.002336    0.169706 H    881 MOH     0.0372 ****
5591 HC3    -5.619697  -12.110114   -0.882469 H    881 MOH     0.0372 ****
5592 O1     -3.865706  -11.608785   -1.820093 O    881 MOH    -0.6497 ****
5593 HO1    -3.956350  -12.138691   -2.614881 H    881 MOH     0.4215 ****
5594 HC1    17.090376  -16.240770    1.688571 H    882 MOH     0.0372 ****
5595 C1     17.730658  -17.116055    1.797466 C    882 MOH     0.1166 ****
5596 HC2    17.580547  -17.516954    2.800143 H    882 MOH     0.0372 ****
5597 HC3    18.769311  -16.803336    1.691400 H    882 MOH     0.0372 ****
5598 O1     17.351339  -18.057883    0.794081 O    882 MOH    -0.6497 ****
5599 HO1    17.280324  -18.931126    1.186525 H    882 MOH     0.4215 ****
5600 HC1    -1.908489  -13.842720   -1.252993 H    883 MOH     0.0372 ****
5601 C1     -1.641176  -14.847419   -0.924188 C    883 MOH     0.1166 ****
5602 HC2    -0.696631  -15.136867   -1.384515 H    883 MOH     0.0372 ****
5603 HC3    -2.403856  -15.561037   -1.233901 H    883 MOH     0.0372 ****
5604 O1     -1.473744  -14.839662    0.504874 O    883 MOH    -0.6497 ****
5605 HO1    -2.302242  -14.651868    0.951766 H    883 MOH     0.4215 ****
5606 HC1    15.226112  -14.027248    6.109403 H    884 MOH     0.0372 ****
5607 C1     16.084632  -13.665540    5.543717 C    884 MOH     0.1166 ****
5608 HC2    15.736490  -13.146248    4.651349 H    884 MOH     0.0372 ****
5609 HC3    16.713944  -14.506123    5.250268 H    884 MOH     0.0372 ****
5610 O1     16.834033  -12.775967    6.339213 O    884 MOH    -0.6497 ****
5611 HO1    17.001464  -13.194421    7.187034 H    884 MOH     0.4215 ****
5612 HC1    16.025165  -12.706157   -3.822619 H    885 MOH     0.0372 ****
5613 C1     15.578296  -12.292193   -4.726301 C    885 MOH     0.1166 ****
5614 HC2    14.550612  -11.973351   -4.554475 H    885 MOH     0.0372 ****
5615 HC3    15.608896  -13.064599   -5.495634 H    885 MOH     0.0372 ****
5616 O1     16.388896  -11.227889   -5.114503 O    885 MOH    -0.6497 ****
5617 HO1    16.570761  -10.681653   -4.346585 H    885 MOH     0.4215 ****
5618 HC1     9.251114  -14.958462   -9.228450 H    886 MOH     0.0372 ****
5619 C1      8.326777  -14.443253   -9.490080 C    886 MOH     0.1166 ****
5620 HC2     7.613749  -14.490202   -8.666301 H    886 MOH     0.0372 ****
5621 HC3     7.890877  -14.889468  -10.383156 H    886 MOH     0.0372 ****
5622 O1      8.564645  -13.093992   -9.769387 O    886 MOH    -0.6497 ****
5623 HO1     9.069249  -13.063782  -10.585388 H    886 MOH     0.4215 ****
5624 HC1     0.857019  -20.819683   12.975410 H    887 MOH     0.0372 ****
5625 C1      1.751334  -21.262224   13.415230 C    887 MOH     0.1166 ****
5626 HC2     1.817152  -20.989106   14.468112 H    887 MOH     0.0372 ****
5627 HC3     2.641608  -20.892351   12.906113 H    887 MOH     0.0372 ****
5628 O1      1.699950  -22.674763   13.299265 O    887 MOH    -0.6497 ****
5629 HO1     2.605235  -22.982991   13.387653 H    887 MOH     0.4215 ****
5630 HC1     7.807739   -9.879037   11.410582 H    888 MOH     0.0372 ****
5631 C1      8.245370  -10.782490   10.985611 C    888 MOH     0.1166 ****
5632 HC2     8.489012  -10.587348    9.941921 H    888 MOH     0.0372 ****
5633 HC3     7.539848  -11.608785   11.078949 H    888 MOH     0.0372 ****
5634 O1      9.381595  -11.080103   11.733023 O    888 MOH    -0.6497 ****
5635 HO1    10.009175  -10.354238   11.684940 H    888 MOH     0.4215 ****
5636 HC1     8.123549  -16.289760   -1.972828 H    889 MOH     0.0372 ****
5637 C1      8.905282  -15.616559   -2.324260 C    889 MOH     0.1166 ****
5638 HC2     9.464734  -16.051343   -3.152282 H    889 MOH     0.0372 ****
5639 HC3     9.590596  -15.411618   -1.502602 H    889 MOH     0.0372 ****
5640 O1      8.331395  -14.417125   -2.769737 O    889 MOH    -0.6497 ****
5641 HO1     8.526540  -13.773726   -2.083844 H    889 MOH     0.4215 ****
5642 HC1     7.521835   -4.089831    2.390021 H    890 MOH     0.0372 ****
5643 C1      6.721050   -4.483791    3.015811 C    890 MOH     0.1166 ****
5644 HC2     6.155247   -5.214147    2.436690 H    890 MOH     0.0372 ****
5645 HC3     6.048437   -3.706894    3.377142 H    890 MOH     0.0372 ****
5646 O1      7.218148   -5.224762    4.060207 O    890 MOH    -0.6497 ****
5647 HO1     7.762590   -4.628719    4.579224 H    890 MOH     0.4215 ****
5648 HC1    19.631179   -2.850798    6.896413 H    891 MOH     0.0372 ****
5649 C1     19.692378   -2.071044    7.654431 C    891 MOH     0.1166 ****
5650 HC2    20.052645   -2.516851    8.582155 H    891 MOH     0.0372 ****
5651 HC3    18.699336   -1.645649    7.800095 H    891 MOH     0.0372 ****
5652 O1     20.563600   -1.048382    7.226632 O    891 MOH    -0.6497 ****
5653 HO1    21.450410   -1.408457    7.160163 H    891 MOH     0.4215 ****
5654 HC1    25.889656    1.898355    1.115815 H    892 MOH     0.0372 ****
5655 C1     26.323246    2.091456    2.096572 C    892 MOH     0.1166 ****
5656 HC2    26.609035    3.142287    2.147484 H    892 MOH     0.0372 ****
5657 HC3    27.211211    1.472143    2.223144 H    892 MOH     0.0372 ****
5658 O1     25.368886    1.776697    3.104199 O    892 MOH    -0.6497 ****
5659 HO1    25.569804    0.885082    3.396941 H    892 MOH     0.4215 ****
5660 HC1    19.252438   -8.955335   -6.516696 H    893 MOH     0.0372 ****
5661 C1     19.065376   -9.941254   -6.091725 C    893 MOH     0.1166 ****
5662 HC2    18.673355   -9.846541   -5.079148 H    893 MOH     0.0372 ****
5663 HC3    20.022623  -10.457688   -6.023135 H    893 MOH     0.0372 ****
5664 O1     18.224177  -10.745095   -6.940960 O    893 MOH    -0.6497 ****
5665 HO1    17.508262  -11.091290   -6.403559 H    893 MOH     0.4215 ****
5666 HC1    21.882845   -8.483399    0.120208 H    894 MOH     0.0372 ****
5667 C1     21.034140   -8.048615    0.648417 C    894 MOH     0.1166 ****
5668 HC2    20.897886   -7.021462    0.310420 H    894 MOH     0.0372 ****
5669 HC3    21.198685   -8.060862    1.726048 H    894 MOH     0.0372 ****
5670 O1     19.868470   -8.746720    0.314663 O    894 MOH    -0.6497 ****
5671 HO1    19.895606   -9.547295    0.844286 H    894 MOH     0.4215 ****
5672 HC1    29.959398    0.286999   -3.499471 H    895 MOH     0.0372 ****
5673 C1     29.764831    1.028377   -2.724482 C    895 MOH     0.1166 ****
5674 HC2    28.700775    1.070427   -2.491844 H    895 MOH     0.0372 ****
5675 HC3    30.066208    2.016747   -3.071672 H    895 MOH     0.0372 ****
5676 O1     30.434558    0.698105   -1.513208 O    895 MOH    -0.6497 ****
5677 HO1    30.216897   -0.196367   -1.240972 H    895 MOH     0.4215 ****
5678 HC1    14.073028    4.999817    2.967727 H    896 MOH     0.0372 ****
5679 C1     14.676937    5.551360    3.688269 C    896 MOH     0.1166 ****
5680 HC2    15.488691    4.916126    4.041822 H    896 MOH     0.0372 ****
5681 HC3    14.028572    5.837134    4.516998 H    896 MOH     0.0372 ****
5682 O1     15.181541    6.675268    3.032781 O    896 MOH    -0.6497 ****
5683 HO1    15.994450    6.936955    3.471894 H    896 MOH     0.4215 ****
5684 HC1    20.777220   -1.407640   -9.493615 H    897 MOH     0.0372 ****
5685 C1     19.985095   -1.939996   -8.967528 C    897 MOH     0.1166 ****
5686 HC2    20.012231   -1.682391   -7.908989 H    897 MOH     0.0372 ****
5687 HC3    20.150795   -3.007565   -9.109656 H    897 MOH     0.0372 ****
5688 O1     18.756494   -1.524399   -9.523314 O    897 MOH    -0.6497 ****
5689 HO1    18.061941   -1.883249   -8.965407 H    897 MOH     0.4215 ****
5690 HC1    21.473504    6.483391  -10.612966 H    898 MOH     0.0372 ****
5691 C1     22.011017    6.825911  -11.497556 C    898 MOH     0.1166 ****
5692 HC2    21.683082    6.251914  -12.364469 H    898 MOH     0.0372 ****
5693 HC3    23.070455    6.641383  -11.319365 H    898 MOH     0.0372 ****
5694 O1     21.750632    8.206607  -11.766257 O    898 MOH    -0.6497 ****
5695 HO1    22.009863    8.411548  -12.667111 H    898 MOH     0.4215 ****
5696 HC1    12.134863   -0.321700    7.352496 H    899 MOH     0.0372 ****
5697 C1     11.114685   -0.614414    7.600691 C    899 MOH     0.1166 ****
5698 HC2    10.953605   -0.556851    8.676200 H    899 MOH     0.0372 ****
5699 HC3    10.906262   -1.636667    7.283907 H    899 MOH     0.0372 ****
5700 O1     10.228453    0.278017    6.999650 O    899 MOH    -0.6497 ****
5701 HO1    10.679941    0.654422    6.240217 H    899 MOH     0.4215 ****
5702 HC1    24.842343    4.651173   -1.970706 H    900 MOH     0.0372 ****
5703 C1     24.890840    3.563599   -2.021618 C    900 MOH     0.1166 ****
5704 HC2    24.512676    3.208832   -2.979748 H    900 MOH     0.0372 ****
5705 HC3    24.284045    3.116976   -1.233901 H    900 MOH     0.0372 ****
5706 O1     26.227406    3.129223   -1.948079 O    900 MOH    -0.6497 ****
5707 HO1    26.195075    2.169840   -1.926866 H    900 MOH     0.4215 ****
5708 HC1    24.039249   -0.930398   -9.048845 H    901 MOH     0.0372 ****
5709 C1     24.237857    0.030210   -8.574377 C    901 MOH     0.1166 ****
5710 HC2    25.302491    0.247398   -8.657815 H    901 MOH     0.0372 ****
5711 HC3    24.008649   -0.004899   -7.509474 H    901 MOH     0.0372 ****
5712 O1     23.444578    1.025928   -9.225622 O    901 MOH    -0.6497 ****
5713 HO1    23.491921    1.802008   -8.662058 H    901 MOH     0.4215 ****
5714 HC1     9.614152   -2.217196   -0.603162 H    902 MOH     0.0372 ****
5715 C1     10.528675   -1.911010   -1.110865 C    902 MOH     0.1166 ****
5716 HC2    11.123923   -1.256588   -0.473761 H    902 MOH     0.0372 ****
5717 HC3    10.253279   -1.364774   -2.013133 H    902 MOH     0.0372 ****
5718 O1     11.230733   -3.050431   -1.508966 O    902 MOH    -0.6497 ****
5719 HO1    12.165463   -2.851614   -1.419163 H    902 MOH     0.4215 ****
5720 HC1    22.880507   -6.397659   -4.036872 H    903 MOH     0.0372 ****
5721 C1     22.927849   -5.674243   -3.222285 C    903 MOH     0.1166 ****
5722 HC2    22.134570   -4.946745   -3.393405 H    903 MOH     0.0372 ****
5723 HC3    23.888560   -5.160667   -3.268954 H    903 MOH     0.0372 ****
5724 O1     22.742520   -6.316009   -1.928280 O    903 MOH    -0.6497 ****
5725 HO1    22.550840   -5.640358   -1.272792 H    903 MOH     0.4215 ****
5726 HC1     6.559969   -2.554818   -5.458864 H    904 MOH     0.0372 ****
5727 C1      6.602693   -2.313135   -4.396790 C    904 MOH     0.1166 ****
5728 HC2     7.639614   -2.375189   -4.065864 H    904 MOH     0.0372 ****
5729 HC3     6.005136   -3.014914   -3.814841 H    904 MOH     0.0372 ****
5730 O1      6.169103   -1.019396   -4.127382 O    904 MOH    -0.6497 ****
5731 HO1     5.399495   -0.827928   -4.668319 H    904 MOH     0.4215 ****
5732 HC1     3.956697    1.382737    2.256378 H    905 MOH     0.0372 ****
5733 C1      3.521952    0.497246    2.719533 C    905 MOH     0.1166 ****
5734 HC2     3.109724   -0.177588    1.969292 H    905 MOH     0.0372 ****
5735 HC3     2.699805    0.783428    3.376435 H    905 MOH     0.0372 ****
5736 O1      4.427237   -0.205349    3.515028 O    905 MOH    -0.6497 ****
5737 HO1     3.900694   -0.923049    3.875652 H    905 MOH     0.4215 ****
5738 HC1    29.638392    2.316809    0.282136 H    906 MOH     0.0372 ****
5739 C1     29.720953    3.256597    0.828022 C    906 MOH     0.1166 ****
5740 HC2    28.894187    3.912243    0.555079 H    906 MOH     0.0372 ****
5741 HC3    30.678199    3.718734    0.583363 H    906 MOH     0.0372 ****
5742 O1     29.679961    2.898563    2.169404 O    906 MOH    -0.6497 ****
5743 HO1    29.903973    3.641575    2.733675 H    906 MOH     0.4215 ****
5744 HC1    17.620268   -3.713018    8.975307 H    907 MOH     0.0372 ****
5745 C1     17.919913   -4.760175    8.960457 C    907 MOH     0.1166 ****
5746 HC2    18.553844   -4.948786    8.093544 H    907 MOH     0.0372 ****
5747 HC3    17.052156   -5.414189    8.881261 H    907 MOH     0.0372 ****
5748 O1     18.624858   -5.071260   10.154054 O    907 MOH    -0.6497 ****
5749 HO1    19.059025   -5.919600   10.035260 H    907 MOH     0.4215 ****
5750 HC1     9.869341   -0.445399   -5.072077 H    908 MOH     0.0372 ****
5751 C1      9.328941    0.424170   -5.445429 C    908 MOH     0.1166 ****
5752 HC2     8.885536    0.094714   -6.385174 H    908 MOH     0.0372 ****
5753 HC3    10.051784    1.227194   -5.591800 H    908 MOH     0.0372 ****
5754 O1      8.337631    0.762608   -4.451944 O    908 MOH    -0.6497 ****
5755 HO1     7.701968    0.048582   -4.369213 H    908 MOH     0.4215 ****
5756 HC1     8.312805   -7.217422   -9.381186 H    909 MOH     0.0372 ****
5757 C1      8.725610   -6.209865   -9.417955 C    909 MOH     0.1166 ****
5758 HC2     8.640162   -5.739155   -8.438612 H    909 MOH     0.0372 ****
5759 HC3     8.148837   -5.621987  -10.132133 H    909 MOH     0.0372 ****
5760 O1     10.065063   -6.265387   -9.849290 O    909 MOH    -0.6497 ****
5761 HO1    10.098549   -6.925932  -10.545083 H    909 MOH     0.4215 ****
5762 HC1    24.426073   -9.060663   -3.432296 H    910 MOH     0.0372 ****
5763 C1     23.745955   -9.629352   -2.798021 C    910 MOH     0.1166 ****
5764 HC2    24.100448   -9.592202   -1.767767 H    910 MOH     0.0372 ****
5765 HC3    23.691106  -10.665895   -3.129654 H    910 MOH     0.0372 ****
5766 O1     22.513312   -9.006366   -2.880046 O    910 MOH    -0.6497 ****
5767 HO1    22.615503   -8.113527   -2.544170 H    910 MOH     0.4215 ****
5768 HC1    14.486411   11.194985    2.759131 H    911 MOH     0.0372 ****
5769 C1     14.032036   11.493006    1.814436 C    911 MOH     0.1166 ****
5770 HC2    12.951237   11.358284    1.862519 H    911 MOH     0.0372 ****
5771 HC3    14.454657   10.868386    1.026719 H    911 MOH     0.0372 ****
5772 O1     14.313783   12.850431    1.554928 O    911 MOH    -0.6497 ****
5773 HO1    14.044161   13.044758    0.654074 H    911 MOH     0.4215 ****
5774 HC1    15.527374   14.108653    5.882421 H    912 MOH     0.0372 ****
5775 C1     15.185582   13.439126    5.093290 C    912 MOH     0.1166 ****
5776 HC2    14.687329   12.563025    5.509069 H    912 MOH     0.0372 ****
5777 HC3    16.057958   13.121100    4.522655 H    912 MOH     0.0372 ****
5778 O1     14.404427   14.169073    4.171223 O    912 MOH    -0.6497 ****
5779 HO1    14.431563   13.682033    3.344615 H    912 MOH     0.4215 ****
5780 HC1    18.294036   -2.597276    1.551392 H    913 MOH     0.0372 ****
5781 C1     18.153740   -2.751593    0.482247 C    913 MOH     0.1166 ****
5782 HC2    17.957441   -1.797109   -0.007071 H    913 MOH     0.0372 ****
5783 HC3    17.319469   -3.430510    0.306177 H    913 MOH     0.0372 ****
5784 O1     19.329225   -3.305995   -0.069296 O    913 MOH    -0.6497 ****
5785 HO1    19.975857   -3.406832    0.632861 H    913 MOH     0.4215 ****
5786 HC1    21.057234    5.439092    2.841862 H    914 MOH     0.0372 ****
5787 C1     21.539899    4.473177    2.694784 C    914 MOH     0.1166 ****
5788 HC2    20.766827    3.719142    2.546999 H    914 MOH     0.0372 ****
5789 HC3    22.104548    4.230677    3.594224 H    914 MOH     0.0372 ****
5790 O1     22.448071    4.500937    1.571899 O    914 MOH    -0.6497 ****
5791 HO1    23.159367    5.105145    1.801001 H    914 MOH     0.4215 ****
5792 HC1    15.750231   -2.803441   -5.817367 H    915 MOH     0.0372 ****
5793 C1     15.589150   -3.816305   -5.448965 C    915 MOH     0.1166 ****
5794 HC2    14.838017   -3.771398   -4.661248 H    915 MOH     0.0372 ****
5795 HC3    16.514065   -4.216797   -5.033893 H    915 MOH     0.0372 ****
5796 O1     15.137662   -4.663012   -6.505382 O    915 MOH    -0.6497 ****
5797 HO1    15.542385   -5.521150   -6.355476 H    915 MOH     0.4215 ****
5798 HC1    24.755740   -8.686299    1.796759 H    916 MOH     0.0372 ****
5799 C1     24.589463   -8.599342    2.870854 C    916 MOH     0.1166 ****
5800 HC2    24.661632   -7.543204    3.130362 H    916 MOH     0.0372 ****
5801 HC3    25.376392   -9.153335    3.383506 H    916 MOH     0.0372 ****
5802 O1     23.263867   -9.118226    3.104906 O    916 MOH    -0.6497 ****
5803 HO1    22.952675   -8.769582    3.943535 H    916 MOH     0.4215 ****
5804 HC1    23.621824    8.710794   10.977833 H    917 MOH     0.0372 ****
5805 C1     22.910529    7.884908   10.967226 C    917 MOH     0.1166 ****
5806 HC2    23.272527    7.153735   10.243856 H    917 MOH     0.0372 ****
5807 HC3    21.921528    8.257230   10.697112 H    917 MOH     0.0372 ****
5808 O1     22.847020    7.311319   12.252039 O    917 MOH    -0.6497 ****
5809 HO1    22.571047    7.995135   12.866515 H    917 MOH     0.4215 ****
5810 HC1     8.129207   -0.116351    4.995709 H    918 MOH     0.0372 ****
5811 C1      7.737764   -0.885491    4.331029 C    918 MOH     0.1166 ****
5812 HC2     8.237172   -0.851606    3.363000 H    918 MOH     0.0372 ****
5813 HC3     6.666202   -0.723008    4.206578 H    918 MOH     0.0372 ****
5814 O1      7.878637   -2.152285    4.915806 O    918 MOH    -0.6497 ****
5815 HO1     7.432345   -2.152693    5.765042 H    918 MOH     0.4215 ****
5816 HC1    24.349286   -2.548286    0.615183 H    919 MOH     0.0372 ****
5817 C1     24.332543   -3.555434    0.197283 C    919 MOH     0.1166 ****
5818 HC2    24.834260   -4.213939    0.905097 H    919 MOH     0.0372 ****
5819 HC3    24.883912   -3.584012   -0.743169 H    919 MOH     0.0372 ****
5820 O1     22.989626   -3.991035    0.048084 O    919 MOH    -0.6497 ****
5821 HO1    22.497723   -3.730165    0.830851 H    919 MOH     0.4215 ****
5822 HC1    18.483984    1.242708   -0.253144 H    920 MOH     0.0372 ****
5823 C1     17.420505    1.443566   -0.384666 C    920 MOH     0.1166 ****
5824 HC2    16.838536    0.522558   -0.357796 H    920 MOH     0.0372 ****
5825 HC3    17.255383    1.914276   -1.354109 H    920 MOH     0.0372 ****
5826 O1     16.970172    2.333955    0.594677 O    920 MOH    -0.6497 ****
5827 HO1    17.080446    3.228427    0.264458 H    920 MOH     0.4215 ****
5828 HC1    22.196924    4.170256   -3.049751 H    921 MOH     0.0372 ****
5829 C1     21.792779    4.516043   -4.000810 C    921 MOH     0.1166 ****
5830 HC2    20.859781    3.992668   -4.212942 H    921 MOH     0.0372 ****
5831 HC3    22.513889    4.371114   -4.804790 H    921 MOH     0.0372 ****
5832 O1     21.546250    5.882041   -3.846661 O    921 MOH    -0.6497 ****
5833 HO1    22.370706    6.337646   -3.658570 H    921 MOH     0.4215 ****
5834 HC1    17.964369   -7.085557    2.153847 H    922 MOH     0.0372 ****
5835 C1     17.778462   -6.499721    1.253701 C    922 MOH     0.1166 ****
5836 HC2    17.796360   -7.123524    0.359918 H    922 MOH     0.0372 ****
5837 HC3    18.526131   -5.714251    1.144806 H    922 MOH     0.0372 ****
5838 O1     16.536005   -5.911435    1.383101 O    922 MOH    -0.6497 ****
5839 HO1    16.237514   -5.800800    0.477297 H    922 MOH     0.4215 ****
5840 HC1    19.149092   -3.510527    3.573011 H    923 MOH     0.0372 ****
5841 C1     19.903111   -4.264153    3.345322 C    923 MOH     0.1166 ****
5842 HC2    19.416982   -5.153726    2.945807 H    923 MOH     0.0372 ****
5843 HC3    20.392127   -4.553601    4.275168 H    923 MOH     0.0372 ****
5844 O1     20.837264   -3.722000    2.400628 O    923 MOH    -0.6497 ****
5845 HO1    21.053770   -2.824262    2.660136 H    923 MOH     0.4215 ****
5846 HC1    15.085701  -10.140071    0.838629 H    924 MOH     0.0372 ****
5847 C1     14.678669   -9.139454    0.693672 C    924 MOH     0.1166 ****
5848 HC2    13.633087   -9.185178    0.388202 H    924 MOH     0.0372 ****
5849 HC3    15.235234   -8.681808   -0.123036 H    924 MOH     0.0372 ****
5850 O1     14.833399   -8.315609    1.850499 O    924 MOH    -0.6497 ****
5851 HO1    15.116300   -7.435426    1.590283 H    924 MOH     0.4215 ****
5852 HC1    14.491607   -5.734664    3.061065 H    925 MOH     0.0372 ****
5853 C1     14.579942   -4.748744    3.517149 C    925 MOH     0.1166 ****
5854 HC2    13.978920   -4.716901    4.425074 H    925 MOH     0.0372 ****
5855 HC3    14.227758   -4.013489    2.793779 H    925 MOH     0.0372 ****
5856 O1     15.919972   -4.545028    3.824741 O    925 MOH    -0.6497 ****
5857 HO1    16.404946   -5.011656    3.140969 H    925 MOH     0.4215 ****
5858 HC1    24.436466    6.057588   -4.716402 H    926 MOH     0.0372 ****
5859 C1     24.856777    6.941037   -4.235569 C    926 MOH     0.1166 ****
5860 HC2    25.110233    7.682825   -4.992881 H    926 MOH     0.0372 ****
5861 HC3    25.743587    6.658121   -3.669177 H    926 MOH     0.0372 ****
5862 O1     23.851610    7.437467   -3.412497 O    926 MOH    -0.6497 ****
5863 HO1    24.207835    7.633835   -2.543463 H    926 MOH     0.4215 ****
5864 HC1    16.455175  -10.571998    3.874945 H    927 MOH     0.0372 ****
5865 C1     17.531356  -10.563833    3.705240 C    927 MOH     0.1166 ****
5866 HC2    17.951667   -9.703654    4.224963 H    927 MOH     0.0372 ****
5867 HC3    17.735161  -10.503412    2.636094 H    927 MOH     0.0372 ****
5868 O1     18.124872  -11.708561    4.205871 O    927 MOH    -0.6497 ****
5869 HO1    17.662992  -11.969840    5.004902 H    927 MOH     0.4215 ****
5870 HC1    12.270541    1.081450    0.744584 H    928 MOH     0.0372 ****
5871 C1     13.302266    0.797717    0.538815 C    928 MOH     0.1166 ****
5872 HC2    13.573043   -0.028169    1.195718 H    928 MOH     0.0372 ****
5873 HC3    13.950630    1.648507    0.749533 H    928 MOH     0.0372 ****
5874 O1     13.440252    0.478467   -0.823072 O    928 MOH    -0.6497 ****
5875 HO1    13.143494    1.271285   -1.275621 H    928 MOH     0.4215 ****
5876 HC1    17.764606    0.353951   -4.941969 H    929 MOH     0.0372 ****
5877 C1     17.779040    1.061446   -5.771405 C    929 MOH     0.1166 ****
5878 HC2    16.788307    1.492556   -5.912827 H    929 MOH     0.0372 ****
5879 HC3    18.117944    0.568282   -6.682159 H    929 MOH     0.0372 ****
5880 O1     18.656035    2.113093   -5.464521 O    929 MOH    -0.6497 ****
5881 HO1    18.852334    2.120033   -4.524776 H    929 MOH     0.4215 ****
5882 HC1    23.896066   -3.480725    8.387701 H    930 MOH     0.0372 ****
5883 C1     23.971121   -2.438875    8.077988 C    930 MOH     0.1166 ****
5884 HC2    25.009774   -2.214339    7.834743 H    930 MOH     0.0372 ****
5885 HC3    23.609123   -1.837525    8.913081 H    930 MOH     0.0372 ****
5886 O1     23.083157   -2.281291    7.001772 O    930 MOH    -0.6497 ****
5887 HO1    23.450351   -2.801808    6.284058 H    930 MOH     0.4215 ****
5888 HC1    13.620963   -7.393376    8.936416 H    931 MOH     0.0372 ****
5889 C1     14.613428   -7.372556    8.485989 C    931 MOH     0.1166 ****
5890 HC2    15.136507   -6.461346    8.775902 H    931 MOH     0.0372 ****
5891 HC3    14.553384   -7.428078    7.399873 H    931 MOH     0.0372 ****
5892 O1     15.348395   -8.437267    8.934294 O    931 MOH    -0.6497 ****
5893 HO1    14.901526   -9.233352    8.638724 H    931 MOH     0.4215 ****
5894 HC1     8.967520   -3.102279   -7.158042 H    932 MOH     0.0372 ****
5895 C1      9.755603   -3.067986   -7.910403 C    932 MOH     0.1166 ****
5896 HC2     9.335292   -2.676476   -8.837420 H    932 MOH     0.0372 ****
5897 HC3    10.153397   -4.065745   -8.097080 H    932 MOH     0.0372 ****
5898 O1     10.761925   -2.167798   -7.560386 O    932 MOH    -0.6497 ****
5899 HO1    11.589267   -2.632793   -7.703928 H    932 MOH     0.4215 ****
5900 HC1    12.171237   -3.722816   -9.876160 H    933 MOH     0.0372 ****
5901 C1     12.601363   -4.292731   -9.051674 C    933 MOH     0.1166 ****
5902 HC2    13.376744   -4.936538   -9.466745 H    933 MOH     0.0372 ****
5903 HC3    11.856003   -4.941437   -8.591347 H    933 MOH     0.0372 ****
5904 O1     13.170630   -3.398259   -8.111929 O    933 MOH    -0.6497 ****
5905 HO1    13.585167   -3.937555   -7.435228 H    933 MOH     0.4215 ****
5906 HC1    22.518508    4.992468   -7.590791 H    934 MOH     0.0372 ****
5907 C1     23.262135    4.471543   -8.193246 C    934 MOH     0.1166 ****
5908 HC2    24.177813    5.061054   -8.241329 H    934 MOH     0.0372 ****
5909 HC3    22.926117    4.350294   -9.223501 H    934 MOH     0.0372 ****
5910 O1     23.600462    3.242716   -7.609176 O    934 MOH    -0.6497 ****
5911 HO1    22.896673    2.971231   -7.015913 H    934 MOH     0.4215 ****
5912 HC1    23.234422   -0.684632   -2.930957 H    935 MOH     0.0372 ****
5913 C1     23.195163   -1.754243   -3.136018 C    935 MOH     0.1166 ****
5914 HC2    22.416894   -2.182495   -2.504572 H    935 MOH     0.0372 ****
5915 HC3    24.163956   -2.190660   -2.892066 H    935 MOH     0.0372 ****
5916 O1     22.906487   -2.046140   -4.504270 O    935 MOH    -0.6497 ****
5917 HO1    23.336036   -2.860596   -4.776506 H    935 MOH     0.4215 ****
5918 HC1    27.395963   -2.004499   -5.177436 H    936 MOH     0.0372 ****
5919 C1     26.873461   -1.075326   -4.949747 C    936 MOH     0.1166 ****
5920 HC2    25.841159   -1.288432   -4.671147 H    936 MOH     0.0372 ****
5921 HC3    26.913876   -0.429069   -5.825853 H    936 MOH     0.0372 ****
5922 O1     27.561085   -0.511943   -3.883430 O    936 MOH    -0.6497 ****
5923 HO1    28.023543   -1.227194   -3.440781 H    936 MOH     0.4215 ****
5924 HC1    20.796272   -6.790394    4.462551 H    937 MOH     0.0372 ****
5925 C1     21.047419   -7.310910    5.386740 C    937 MOH     0.1166 ****
5926 HC2    20.380580   -8.164558    5.507655 H    937 MOH     0.0372 ****
5927 HC3    20.924444   -6.640975    6.237389 H    937 MOH     0.0372 ****
5928 O1     22.387449   -7.741612    5.289866 O    937 MOH    -0.6497 ****
5929 HO1    22.577398   -8.297238    6.048592 H    937 MOH     0.4215 ****
5930 HC1    22.269093    0.140029   -5.558566 H    938 MOH     0.0372 ****
5931 C1     21.332053    0.396001   -6.051420 C    938 MOH     0.1166 ****
5932 HC2    20.493741    0.064095   -5.438358 H    938 MOH     0.0372 ****
5933 HC3    21.313578   -0.102879   -7.020156 H    938 MOH     0.0372 ****
5934 O1     21.301454    1.779554   -6.268501 O    938 MOH    -0.6497 ****
5935 HO1    20.385199    2.020829   -6.420529 H    938 MOH     0.4215 ****
5936 HC1    18.939514   -4.569931   -7.266229 H    939 MOH     0.0372 ****
5937 C1     19.244932   -5.550136   -7.633217 C    939 MOH     0.1166 ****
5938 HC2    20.194096   -5.470527   -8.162840 H    939 MOH     0.0372 ****
5939 HC3    18.478211   -5.942462   -8.300019 H    939 MOH     0.0372 ****
5940 O1     19.398507   -6.470735   -6.559122 O    939 MOH    -0.6497 ****
5941 HO1    20.247789   -6.904703   -6.667310 H    939 MOH     0.4215 ****
5942 HC1    24.780566   -7.218238   -0.593262 H    940 MOH     0.0372 ****
5943 C1     25.651788   -6.714868   -1.012577 C    940 MOH     0.1166 ****
5944 HC2    25.353875   -5.765691   -1.455933 H    940 MOH     0.0372 ****
5945 HC3    26.090574   -7.326424   -1.801708 H    940 MOH     0.0372 ****
5946 O1     26.620582   -6.439709   -0.026870 O    940 MOH    -0.6497 ****
5947 HO1    27.050708   -7.277842    0.156271 H    940 MOH     0.4215 ****
5948 HC1    14.752569    2.111460    8.367902 H    941 MOH     0.0372 ****
5949 C1     15.360519    2.982254    8.119707 C    941 MOH     0.1166 ****
5950 HC2    16.410142    2.712810    8.005156 H    941 MOH     0.0372 ****
5951 HC3    15.303939    3.704445    8.935001 H    941 MOH     0.0372 ****
5952 O1     14.965612    3.544412    6.909848 O    941 MOH    -0.6497 ****
5953 HO1    15.247359    2.945920    6.214055 H    941 MOH     0.4215 ****
5954 HC1    16.225390   -0.894472  -12.341134 H    942 MOH     0.0372 ****
5955 C1     17.149151   -0.706270  -12.889142 C    942 MOH     0.1166 ****
5956 HC2    17.739780   -1.621154  -12.851666 H    942 MOH     0.0372 ****
5957 HC3    17.671653    0.117167  -12.401946 H    942 MOH     0.0372 ****
5958 O1     16.876064   -0.353951  -14.243252 O    942 MOH    -0.6497 ****
5959 HO1    17.657796    0.068177  -14.606705 H    942 MOH     0.4215 ****
5960 HC1    13.812066   -5.632602   -1.430477 H    943 MOH     0.0372 ****
5961 C1     14.668854   -5.890615   -2.054145 C    943 MOH     0.1166 ****
5962 HC2    14.854761   -5.097388   -2.777515 H    943 MOH     0.0372 ****
5963 HC3    14.422903   -6.794476   -2.611345 H    943 MOH     0.0372 ****
5964 O1     15.832215   -6.081267   -1.252993 O    943 MOH    -0.6497 ****
5965 HO1    16.528499   -6.429094   -1.814436 H    943 MOH     0.4215 ****
5966 HC1    19.866738   -5.972673   -2.247185 H    944 MOH     0.0372 ****
5967 C1     19.368485   -6.748344   -2.827013 C    944 MOH     0.1166 ****
5968 HC2    20.095369   -7.493806   -3.149453 H    944 MOH     0.0372 ****
5969 HC3    18.906027   -6.274368   -3.693218 H    944 MOH     0.0372 ****
5970 O1     18.393340   -7.379088   -2.030103 O    944 MOH    -0.6497 ****
5971 HO1    18.865036   -7.748144   -1.280570 H    944 MOH     0.4215 ****
5972 HC1    23.207287    0.079200    4.939848 H    945 MOH     0.0372 ****
5973 C1     22.584903    0.973672    4.930656 C    945 MOH     0.1166 ****
5974 HC2    23.028886    1.760775    5.540182 H    945 MOH     0.0372 ****
5975 HC3    21.613223    0.695655    5.340071 H    945 MOH     0.0372 ****
5976 O1     22.405347    1.426420    3.609073 O    945 MOH    -0.6497 ****
5977 HO1    23.262712    1.701987    3.276026 H    945 MOH     0.4215 ****
5978 HC1    19.191238    5.726090   -6.540738 H    946 MOH     0.0372 ****
5979 C1     19.784177    5.387653   -7.389973 C    946 MOH     0.1166 ****
5980 HC2    20.151372    4.391935   -7.141778 H    946 MOH     0.0372 ****
5981 HC3    20.631150    6.057588   -7.542001 H    946 MOH     0.0372 ****
5982 O1     18.979928    5.336622   -8.560235 O    946 MOH    -0.6497 ****
5983 HO1    19.386960    4.686282   -9.137941 H    946 MOH     0.4215 ****
5984 HC1    18.836168    0.258829    2.780344 H    947 MOH     0.0372 ****
5985 C1     19.289965    1.138196    3.237135 C    947 MOH     0.1166 ****
5986 HC2    20.127123    1.454997    2.614881 H    947 MOH     0.0372 ****
5987 HC3    19.593652    0.889165    4.253955 H    947 MOH     0.0372 ****
5988 O1     18.339647    2.135955    3.201780 O    947 MOH    -0.6497 ****
5989 HO1    18.011712    2.191477    2.300926 H    947 MOH     0.4215 ****
5990 HC1    10.668971   11.731423    0.451134 H    948 MOH     0.0372 ****
5991 C1      9.761376   11.667736    1.050761 C    948 MOH     0.1166 ****
5992 HC2     9.150540   10.821029    0.738219 H    948 MOH     0.0372 ****
5993 HC3     9.212316   12.599767    0.918532 H    948 MOH     0.0372 ****
5994 O1     10.133190   11.484433    2.375172 O    948 MOH    -0.6497 ****
5995 HO1    10.660311   10.681817    2.373757 H    948 MOH     0.4215 ****
5996 HC1    26.199116    3.577888    8.157184 H    949 MOH     0.0372 ****
5997 C1     25.946236    4.442558    8.770953 C    949 MOH     0.1166 ****
5998 HC2    26.753950    4.625861    9.478767 H    949 MOH     0.0372 ****
5999 HC3    25.028250    4.209856    9.309768 H    949 MOH     0.0372 ****
6000 O1     25.753979    5.550952    7.914646 O    949 MOH    -0.6497 ****
6001 HO1    25.068664    5.279875    7.299464 H    949 MOH     0.4215 ****
6002 HC1    22.458464   -3.681583    4.623064 H    950 MOH     0.0372 ****
6003 C1     23.281188   -4.372339    4.437802 C    950 MOH     0.1166 ****
6004 HC2    23.556584   -4.251089    3.390577 H    950 MOH     0.0372 ****
6005 HC3    22.972883   -5.412148    4.544576 H    950 MOH     0.0372 ****
6006 O1     24.371225   -4.061662    5.322393 O    950 MOH    -0.6497 ****
6007 HO1    24.982062   -4.802225    5.335121 H    950 MOH     0.4215 ****
6008 HC1    18.205702   -2.340079   -4.572152 H    951 MOH     0.0372 ****
6009 C1     19.132926   -2.516851   -4.028387 C    951 MOH     0.1166 ****
6010 HC2    19.067108   -3.441533   -3.454924 H    951 MOH     0.0372 ****
6011 HC3    19.356361   -1.680350   -3.365828 H    951 MOH     0.0372 ****
6012 O1     20.136361   -2.618913   -4.958940 O    951 MOH    -0.6497 ****
6013 HO1    20.946383   -2.278025   -4.572152 H    951 MOH     0.4215 ****
6014 HC1    16.108765   -2.195968   -9.845048 H    952 MOH     0.0372 ****
6015 C1     16.388780   -3.104320   -9.311182 C    952 MOH     0.1166 ****
6016 HC2    17.197071   -3.599933   -9.848583 H    952 MOH     0.0372 ****
6017 HC3    15.557973   -3.810181   -9.287847 H    952 MOH     0.0372 ****
6018 O1     16.826412   -2.843041   -7.991721 O    952 MOH    -0.6497 ****
6019 HO1    16.478847   -3.547678   -7.440177 H    952 MOH     0.4215 ****
6020 HC1    27.292617   -2.723833    3.558162 H    953 MOH     0.0372 ****
6021 C1     26.461233   -2.040425    3.388456 C    953 MOH     0.1166 ****
6022 HC2    25.539205   -2.500521    3.745545 H    953 MOH     0.0372 ****
6023 HC3    26.390796   -1.852222    2.317189 H    953 MOH     0.0372 ****
6024 O1     26.789168   -0.819763    4.040408 O    953 MOH    -0.6497 ****
6025 HO1    27.402314   -1.016946    4.752465 H    953 MOH     0.4215 ****
6026 HC1    19.799188   -0.494389   12.041322 H    954 MOH     0.0372 ****
6027 C1     18.907759    0.132273   12.009502 C    954 MOH     0.1166 ****
6028 HC2    18.019217   -0.498471   11.969197 H    954 MOH     0.0372 ****
6029 HC3    18.916997    0.750360   11.111476 H    954 MOH     0.0372 ****
6030 O1     18.918152    0.979796   13.130973 O    954 MOH    -0.6497 ****
6031 HO1    19.673903    1.559917   13.014300 H    954 MOH     0.4215 ****
6032 HC1    27.052440    0.102470   -0.419314 H    955 MOH     0.0372 ****
6033 C1     26.042654   -0.218413   -0.675287 C    955 MOH     0.1166 ****
6034 HC2    25.345215    0.212289    0.043841 H    955 MOH     0.0372 ****
6035 HC3    25.961248   -1.304762   -0.640638 H    955 MOH     0.0372 ****
6036 O1     25.687584    0.240866   -1.947372 O    955 MOH    -0.6497 ****
6037 HO1    26.286296   -0.166565   -2.576697 H    955 MOH     0.4215 ****
6038 HC1    21.456183    0.767507   10.627815 H    956 MOH     0.0372 ****
6039 C1     21.680773    1.833443   10.678020 C    956 MOH     0.1166 ****
6040 HC2    21.321661    2.381312    9.806864 H    956 MOH     0.0372 ****
6041 HC3    22.766769    1.879983   10.605895 H    956 MOH     0.0372 ****
6042 O1     21.319929    2.431527   11.944448 O    956 MOH    -0.6497 ****
6043 HO1    21.247760    3.380296   11.818583 H    956 MOH     0.4215 ****
6044 HC1    20.542815  -12.683458    1.995456 H    957 MOH     0.0372 ****
6045 C1     21.124207  -11.926157    2.522250 C    957 MOH     0.1166 ****
6046 HC2    22.177871  -12.170290    2.385071 H    957 MOH     0.0372 ****
6047 HC3    20.894422  -11.915543    3.587153 H    957 MOH     0.0372 ****
6048 O1     20.996035  -10.665895    1.970000 O    957 MOH    -0.6497 ****
6049 HO1    21.794511  -10.189469    2.211123 H    957 MOH     0.4215 ****
6050 HC1    15.698269   -1.326399    7.077432 H    958 MOH     0.0372 ****
6051 C1     16.043525   -2.169431    6.479927 C    958 MOH     0.1166 ****
6052 HC2    16.783688   -2.701379    7.078846 H    958 MOH     0.0372 ****
6053 HC3    16.485198   -1.783637    5.561395 H    958 MOH     0.0372 ****
6054 O1     14.991015   -3.087174    6.146172 O    958 MOH    -0.6497 ****
6055 HO1    15.269875   -3.600342    5.384618 H    958 MOH     0.4215 ****
6056 HC1    20.763363  -13.005974   -2.667206 H    959 MOH     0.0372 ****
6057 C1     20.730454  -11.920850   -2.766201 C    959 MOH     0.1166 ****
6058 HC2    21.175591  -11.451773   -1.888682 H    959 MOH     0.0372 ****
6059 HC3    19.692956  -11.595068   -2.841155 H    959 MOH     0.0372 ****
6060 O1     21.416346  -11.543629   -3.931513 O    959 MOH    -0.6497 ****
6061 HO1    21.517960  -10.590369   -3.891208 H    959 MOH     0.4215 ****
6062 HC1    29.196719   -4.189036   -1.484217 H    960 MOH     0.0372 ****
6063 C1     28.290856   -3.864478   -1.995455 C    960 MOH     0.1166 ****
6064 HC2    27.405201   -4.257213   -1.496238 H    960 MOH     0.0372 ****
6065 HC3    28.298362   -4.212714   -3.028538 H    960 MOH     0.0372 ****
6066 O1     28.197903   -2.472352   -1.981313 O    960 MOH    -0.6497 ****
6067 HO1    28.468103   -2.186986   -1.105208 H    960 MOH     0.4215 ****
6068 HC1    21.731002    0.374772    0.500632 H    961 MOH     0.0372 ****
6069 C1     22.394378   -0.447032    0.770039 C    961 MOH     0.1166 ****
6070 HC2    23.410514   -0.060829    0.847821 H    961 MOH     0.0372 ****
6071 HC3    22.380521   -1.229644    0.011314 H    961 MOH     0.0372 ****
6072 O1     22.016213   -0.874060    2.056974 O    961 MOH    -0.6497 ****
6073 HO1    22.069907   -0.104920    2.628316 H    961 MOH     0.4215 ****
6074 HC1    25.510914    6.574022    4.603972 H    962 MOH     0.0372 ****
6075 C1     25.171432    5.828153    3.884845 C    962 MOH     0.1166 ****
6076 HC2    24.665096    4.990835    4.366385 H    962 MOH     0.0372 ****
6077 HC3    26.058242    5.431335    3.389870 H    962 MOH     0.0372 ****
6078 O1     24.330233    6.448690    2.930251 O    962 MOH    -0.6497 ****
6079 HO1    24.859663    7.133731    2.514472 H    962 MOH     0.4215 ****
6080 HC1    16.217307   -0.662179   -4.376991 H    963 MOH     0.0372 ****
6081 C1     15.586841   -0.975713   -3.545433 C    963 MOH     0.1166 ****
6082 HC2    14.610541   -1.288432   -3.915957 H    963 MOH     0.0372 ****
6083 HC3    15.416522   -0.148602   -2.855297 H    963 MOH     0.0372 ****
6084 O1     16.189017   -2.029811   -2.849640 O    963 MOH    -0.6497 ****
6085 HO1    15.538343   -2.384170   -2.240114 H    963 MOH     0.4215 ****
6086 HC1    18.879469    4.070235   -1.233194 H    964 MOH     0.0372 ****
6087 C1     19.535917    4.345803   -0.408000 C    964 MOH     0.1166 ****
6088 HC2    18.989166    4.309877    0.535280 H    964 MOH     0.0372 ****
6089 HC3    19.882327    5.368465   -0.558614 H    964 MOH     0.0372 ****
6090 O1     20.654821    3.473785   -0.342947 O    964 MOH    -0.6497 ****
6091 HO1    21.259884    3.800383    0.327391 H    964 MOH     0.4215 ****
6092 HC1    22.655917    8.785095    6.534374 H    965 MOH     0.0372 ****
6093 C1     22.344148    8.366232    7.491797 C    965 MOH     0.1166 ****
6094 HC2    21.817027    9.112510    8.084352 H    965 MOH     0.0372 ****
6095 HC3    23.236732    8.032693    8.020005 H    965 MOH     0.0372 ****
6096 O1     21.529507    7.252123    7.264815 O    965 MOH    -0.6497 ****
6097 HO1    20.843615    7.493397    6.639026 H    965 MOH     0.4215 ****
6098 HC1    15.335693   14.179280   -1.185111 H    966 MOH     0.0372 ****
6099 C1     14.428099   14.558951   -1.654630 C    966 MOH     0.1166 ****
6100 HC2    14.558580   14.538946   -2.737210 H    966 MOH     0.0372 ****
6101 HC3    14.284916   15.589777   -1.332896 H    966 MOH     0.0372 ****
6102 O1     13.287832   13.765724   -1.280570 O    966 MOH    -0.6497 ****
6103 HO1    12.514760   14.270727   -1.542907 H    966 MOH     0.4215 ****
6104 HC1     8.217542   -5.997576   -1.180161 H    967 MOH     0.0372 ****
6105 C1      8.861287   -5.213331   -1.576848 C    967 MOH     0.1166 ****
6106 HC2     8.895351   -4.411939   -0.839336 H    967 MOH     0.0372 ****
6107 HC3     8.462338   -4.773239   -2.491844 H    967 MOH     0.0372 ****
6108 O1     10.173027   -5.677917   -1.807365 O    967 MOH    -0.6497 ****
6109 HO1    10.615278   -4.890815   -2.132634 H    967 MOH     0.4215 ****
6110 HC1    14.987551    1.143095    2.998133 H    968 MOH     0.0372 ****
6111 C1     15.150364    0.918967    4.052429 C    968 MOH     0.1166 ****
6112 HC2    15.717899   -0.007757    4.144353 H    968 MOH     0.0372 ****
6113 HC3    14.166559    0.801391    4.506392 H    968 MOH     0.0372 ****
6114 O1     15.843184    1.995518    4.644277 O    968 MOH    -0.6497 ****
6115 HO1    16.681497    2.086149    4.186072 H    968 MOH     0.4215 ****
6116 HC1    12.922946   -4.923066    7.757669 H    969 MOH     0.0372 ****
6117 C1     12.529771   -4.488282    8.676200 C    969 MOH     0.1166 ****
6118 HC2    12.345596   -3.423570    8.534779 H    969 MOH     0.0372 ****
6119 HC3    13.228942   -4.632393    9.499980 H    969 MOH     0.0372 ****
6120 O1     11.365255   -5.149236    9.005005 O    969 MOH    -0.6497 ****
6121 HO1    10.940903   -4.699754    9.739689 H    969 MOH     0.4215 ****
6122 HC1    14.709846    1.038175   -6.337798 H    970 MOH     0.0372 ****
6123 C1     14.576478    0.015513   -6.690644 C    970 MOH     0.1166 ****
6124 HC2    13.577662   -0.062054   -7.119151 H    970 MOH     0.0372 ****
6125 HC3    14.649801   -0.701371   -5.873229 H    970 MOH     0.0372 ****
6126 O1     15.496774   -0.261687   -7.702514 O    970 MOH    -0.6497 ****
6127 HO1    15.612822   -1.209640   -7.794438 H    970 MOH     0.4215 ****
6128 HC1    16.896849   -8.236409   -7.380073 H    971 MOH     0.0372 ****
6129 C1     16.160150   -7.890623   -6.655289 C    971 MOH     0.1166 ****
6130 HC2    15.889372   -8.698546   -5.974345 H    971 MOH     0.0372 ****
6131 HC3    15.251400   -7.590969   -7.175719 H    971 MOH     0.0372 ****
6132 O1     16.600090   -6.809173   -5.861208 O    971 MOH    -0.6497 ****
6133 HO1    17.547522   -6.877759   -5.725443 H    971 MOH     0.4215 ****
6134 HC1    15.734065  -10.487082   -1.617860 H    972 MOH     0.0372 ****
6135 C1     16.769254  -10.182937   -1.774131 C    972 MOH     0.1166 ****
6136 HC2    17.358151  -11.085574   -1.941715 H    972 MOH     0.0372 ****
6137 HC3    17.142222   -9.626086   -0.915703 H    972 MOH     0.0372 ****
6138 O1     16.766945   -9.451356   -2.950756 O    972 MOH    -0.6497 ****
6139 HO1    17.404339   -8.742229   -2.841155 H    972 MOH     0.4215 ****
6140 HC1    28.796615   -5.294980    2.952878 H    973 MOH     0.0372 ****
6141 C1     29.180553   -4.698121    2.125563 C    973 MOH     0.1166 ****
6142 HC2    29.868177   -5.315393    1.547150 H    973 MOH     0.0372 ****
6143 HC3    29.681693   -3.836309    2.567505 H    973 MOH     0.0372 ****
6144 O1     28.115342   -4.258438    1.338553 O    973 MOH    -0.6497 ****
6145 HO1    27.585911   -5.014514    1.076924 H    973 MOH     0.4215 ****
6146 HC1    19.262830    3.701179    7.553315 H    974 MOH     0.0372 ****
6147 C1     19.326338    2.778130    6.977023 C    974 MOH     0.1166 ****
6148 HC2    20.358063    2.574006    6.691352 H    974 MOH     0.0372 ****
6149 HC3    18.709151    2.889990    6.086068 H    974 MOH     0.0372 ****
6150 O1     18.808455    1.724849    7.742112 O    974 MOH    -0.6497 ****
6151 HO1    19.058448    0.900188    7.317848 H    974 MOH     0.4215 ****
6152 HC1    28.688650    0.161666    1.688571 H    975 MOH     0.0372 ****
6153 C1     29.328932   -0.713618    1.797466 C    975 MOH     0.1166 ****
6154 HC2    29.178821   -1.114518    2.800143 H    975 MOH     0.0372 ****
6155 HC3    30.367585   -0.400900    1.691400 H    975 MOH     0.0372 ****
6156 O1     28.949613   -1.655447    0.794081 O    975 MOH    -0.6497 ****
6157 HO1    28.878599   -2.528690    1.186525 H    975 MOH     0.4215 ****
6158 HC1    26.824386    2.375189    6.109403 H    976 MOH     0.0372 ****
6159 C1     27.682906    2.736897    5.543717 C    976 MOH     0.1166 ****
6160 HC2    27.334764    3.256188    4.651349 H    976 MOH     0.0372 ****
6161 HC3    28.312218    1.896313    5.250268 H    976 MOH     0.0372 ****
6162 O1     28.432307    3.626470    6.339213 O    976 MOH    -0.6497 ****
6163 HO1    28.599738    3.208015    7.187034 H    976 MOH     0.4215 ****
6164 HC1    27.623439    3.696280   -3.822619 H    977 MOH     0.0372 ****
6165 C1     27.176570    4.110244   -4.726301 C    977 MOH     0.1166 ****
6166 HC2    26.148887    4.429086   -4.554475 H    977 MOH     0.0372 ****
6167 HC3    27.207170    3.337838   -5.495634 H    977 MOH     0.0372 ****
6168 O1     27.987170    5.174547   -5.114503 O    977 MOH    -0.6497 ****
6169 HO1    28.169035    5.720783   -4.346585 H    977 MOH     0.4215 ****
6170 HC1    20.849388    1.443974   -9.228450 H    978 MOH     0.0372 ****
6171 C1     19.925051    1.959183   -9.490080 C    978 MOH     0.1166 ****
6172 HC2    19.212023    1.912235   -8.666301 H    978 MOH     0.0372 ****
6173 HC3    19.489151    1.512968  -10.383156 H    978 MOH     0.0372 ****
6174 O1     20.162919    3.308444   -9.769387 O    978 MOH    -0.6497 ****
6175 HO1    20.667523    3.338654  -10.585388 H    978 MOH     0.4215 ****
6176 HC1    12.455293   -4.417246   12.975410 H    979 MOH     0.0372 ****
6177 C1     13.349608   -4.859788   13.415230 C    979 MOH     0.1166 ****
6178 HC2    13.415426   -4.586669   14.468112 H    979 MOH     0.0372 ****
6179 HC3    14.239882   -4.489915   12.906113 H    979 MOH     0.0372 ****
6180 O1     13.298224   -6.272327   13.299265 O    979 MOH    -0.6497 ****
6181 HO1    14.203509   -6.580554   13.387653 H    979 MOH     0.4215 ****
6182 HC1    11.108912   -8.775705   -8.688928 H    980 MOH     0.0372 ****
6183 C1     11.622754   -8.466661   -7.778882 C    980 MOH     0.1166 ****
6184 HC2    12.705863   -8.492789   -7.894847 H    980 MOH     0.0372 ****
6185 HC3    11.319645   -9.105978   -6.948738 H    980 MOH     0.0372 ****
6186 O1     11.183390   -7.209257   -7.496039 O    980 MOH    -0.6497 ****
6187 HO1    10.851414   -6.847140   -8.321232 H    980 MOH     0.4215 ****
6188 HC1    11.859467    3.962458    6.561951 H    981 MOH     0.0372 ****
6189 C1     11.793072    3.701996    7.618369 C    981 MOH     0.1166 ****
6190 HC2    11.901036    2.623812    7.742112 H    981 MOH     0.0372 ****
6191 HC3    10.809267    4.016755    7.966972 H    981 MOH     0.0372 ****
6192 O1     12.776877    4.420921    8.341739 O    981 MOH    -0.6497 ****
6193 HO1    13.599601    4.311918    7.858785 H    981 MOH     0.4215 ****
6194 HC1    19.406013    6.523400   11.410582 H    982 MOH     0.0372 ****
6195 C1     19.843644    5.619946   10.985611 C    982 MOH     0.1166 ****
6196 HC2    20.087286    5.815089    9.941921 H    982 MOH     0.0372 ****
6197 HC3    19.138122    4.793652   11.078949 H    982 MOH     0.0372 ****
6198 O1     20.979869    5.322333   11.733023 O    982 MOH    -0.6497 ****
6199 HO1    21.607449    6.048199   11.684940 H    982 MOH     0.4215 ****
6200 HC1    16.186130   -0.674426   10.777722 H    983 MOH     0.0372 ****
6201 C1     15.775634   -1.630952   11.100870 C    983 MOH     0.1166 ****
6202 HC2    16.554480   -2.393560   11.122083 H    983 MOH     0.0372 ****
6203 HC3    14.990438   -1.909785   10.398712 H    983 MOH     0.0372 ****
6204 O1     15.179809   -1.486432   12.356691 O    983 MOH    -0.6497 ****
6205 HO1    15.800460   -1.037359   12.935105 H    983 MOH     0.4215 ****
6206 HC1     4.485550    0.646257   -2.854590 H    984 MOH     0.0372 ****
6207 C1      5.044425    1.278634   -2.165161 C    984 MOH     0.1166 ****
6208 HC2     5.089458    2.279250   -2.595789 H    984 MOH     0.0372 ****
6209 HC3     6.057675    0.884266   -2.084551 H    984 MOH     0.0372 ****
6210 O1      4.379317    1.290881   -0.876812 O    984 MOH    -0.6497 ****
6211 HO1     4.846394    0.672793   -0.311127 H    984 MOH     0.4215 ****
6212 HC1    12.960474   -5.566874   -4.955404 H    985 MOH     0.0372 ****
6213 C1     12.078283   -4.983487   -4.694482 C    985 MOH     0.1166 ****
6214 HC2    12.382547   -3.984912   -4.383355 H    985 MOH     0.0372 ****
6215 HC3    11.543079   -5.473385   -3.881309 H    985 MOH     0.0372 ****
6216 O1     11.257291   -4.928373   -5.861915 O    985 MOH    -0.6497 ****
6217 HO1    11.166647   -5.817130   -6.214761 H    985 MOH     0.4215 ****
6218 HC1    20.497205  -14.559359    0.495682 H    986 MOH     0.0372 ****
6219 C1     21.334940  -14.331148   -0.164048 C    986 MOH     0.1166 ****
6220 HC2    21.692320  -13.329715    0.071418 H    986 MOH     0.0372 ****
6221 HC3    20.984488  -14.376055   -1.195010 H    986 MOH     0.0372 ****
6222 O1     22.415740  -15.272977    0.040305 O    986 MOH    -0.6497 ****
6223 HO1    23.248856  -14.884733   -0.237588 H    986 MOH     0.4215 ****
6224 HC1    14.690793   -3.704037    0.111016 H    987 MOH     0.0372 ****
6225 C1     14.379024   -2.660554    0.075661 C    987 MOH     0.1166 ****
6226 HC2    15.185005   -2.003274    0.403758 H    987 MOH     0.0372 ****
6227 HC3    13.536093   -2.537263    0.754483 H    987 MOH     0.0372 ****
6228 O1     13.925804   -2.314360   -1.218345 O    987 MOH    -0.6497 ****
6229 HO1    13.714494   -1.378654   -1.188646 H    987 MOH     0.4215 ****
6230 HC1    21.386901    4.309469    7.608469 H    988 MOH     0.0372 ****
6231 C1     22.312394    4.609123    8.102030 C    988 MOH     0.1166 ****
6232 HC2    22.756376    3.755068    8.613975 H    988 MOH     0.0372 ****
6233 HC3    22.066443    5.361117    8.851563 H    988 MOH     0.0372 ****
6234 O1     23.194585    5.108411    7.076018 O    988 MOH    -0.6497 ****
6235 HO1    23.004060    6.046565    7.001064 H    988 MOH     0.4215 ****
6236 HC1    10.416092   -4.533189    0.927724 H    989 MOH     0.0372 ****
6237 C1     11.187432   -4.826311    1.640488 C    989 MOH     0.1166 ****
6238 HC2    12.085211   -5.082691    1.077631 H    989 MOH     0.0372 ****
6239 HC3    10.857187   -5.714660    2.179303 H    989 MOH     0.0372 ****
6240 O1     11.447817   -3.748944    2.549120 O    989 MOH    -0.6497 ****
6241 HO1    10.781554   -3.773847    3.239963 H    989 MOH     0.4215 ****
6242 HC1    10.286765   -3.922450    6.810853 H    990 MOH     0.0372 ****
6243 C1     10.770007   -4.073093    5.845652 C    990 MOH     0.1166 ****
6244 HC2    11.225537   -5.062687    5.825853 H    990 MOH     0.0372 ****
6245 HC3    11.530378   -3.303953    5.707059 H    990 MOH     0.0372 ****
6246 O1      9.738860   -4.023695    4.859238 O    990 MOH    -0.6497 ****
6247 HO1     9.226173   -3.222712    4.989346 H    990 MOH     0.4215 ****
6248 HC1     5.986660   -2.494805    0.477297 H    991 MOH     0.0372 ****
6249 C1      6.574403   -1.579104    0.538815 C    991 MOH     0.1166 ****
6250 HC2     7.040325   -1.368448   -0.424264 H    991 MOH     0.0372 ****
6251 HC3     7.363063   -1.727707    1.275621 H    991 MOH     0.0372 ****
6252 O1      5.792671   -0.454380    0.914289 O    991 MOH    -0.6497 ****
6253 HO1     5.392567   -0.618496    1.771303 H    991 MOH     0.4215 ****
6254 HC1    19.721823    0.112677   -1.972828 H    992 MOH     0.0372 ****
6255 C1     20.503556    0.785878   -2.324260 C    992 MOH     0.1166 ****
6256 HC2    21.063008    0.351094   -3.152282 H    992 MOH     0.0372 ****
6257 HC3    21.188870    0.990819   -1.502602 H    992 MOH     0.0372 ****
6258 O1     19.929669    1.985311   -2.769737 O    992 MOH    -0.6497 ****
6259 HO1    20.124814    2.628711   -2.083844 H    992 MOH     0.4215 ****
6260 HC1    24.621680   22.853576   -1.701299 H    993 MOH     0.0372 ****
6261 C1     23.585336   22.992380   -1.394415 C    993 MOH     0.1166 ****
6262 HC2    23.021842   23.356538   -2.252842 H    993 MOH     0.0372 ****
6263 HC3    23.515476   23.742333   -0.605990 H    993 MOH     0.0372 ****
6264 O1     23.059947   21.749673   -0.977221 O    993 MOH    -0.6497 ****
6265 HO1    22.297267   21.901949   -0.415072 H    993 MOH     0.4215 ****
6266 HC1    30.850712    7.447102   -6.516696 H    994 MOH     0.0372 ****
6267 C1     30.663650    6.461182   -6.091725 C    994 MOH     0.1166 ****
6268 HC2    30.271629    6.555896   -5.079148 H    994 MOH     0.0372 ****
6269 HC3    31.620897    5.944748   -6.023135 H    994 MOH     0.0372 ****
6270 O1     29.822451    5.657341   -6.940960 O    994 MOH    -0.6497 ****
6271 HO1    29.106537    5.311147   -6.403559 H    994 MOH     0.4215 ****
6272 HC1    25.671302   21.402253    2.967727 H    995 MOH     0.0372 ****
6273 C1     26.275211   21.953797    3.688269 C    995 MOH     0.1166 ****
6274 HC2    27.086965   21.318562    4.041822 H    995 MOH     0.0372 ****
6275 HC3    25.626846   22.239571    4.516998 H    995 MOH     0.0372 ****
6276 O1     26.779815   23.077704    3.032781 O    995 MOH    -0.6497 ****
6277 HO1    27.592724   23.339391    3.471894 H    995 MOH     0.4215 ****
6278 HC1    23.733137   16.080737    7.352496 H    996 MOH     0.0372 ****
6279 C1     22.712960   15.788023    7.600691 C    996 MOH     0.1166 ****
6280 HC2    22.551879   15.845586    8.676200 H    996 MOH     0.0372 ****
6281 HC3    22.504536   14.765769    7.283907 H    996 MOH     0.0372 ****
6282 O1     21.826727   16.680454    6.999650 O    996 MOH    -0.6497 ****
6283 HO1    22.278215   17.056859    6.240217 H    996 MOH     0.4215 ****
6284 HC1    27.530370   20.028906   -7.544122 H    997 MOH     0.0372 ****
6285 C1     27.575981   19.574117   -8.534072 C    997 MOH     0.1166 ****
6286 HC2    28.493391   18.995221   -8.642966 H    997 MOH     0.0372 ****
6287 HC3    27.565589   20.351830   -9.297040 H    997 MOH     0.0372 ****
6288 O1     26.472665   18.737617   -8.751153 O    997 MOH    -0.6497 ****
6289 HO1    26.731895   17.850085   -8.493767 H    997 MOH     0.4215 ****
6290 HC1    18.332026   18.867440    3.556747 H    998 MOH     0.0372 ****
6291 C1     19.372411   18.894792    3.230771 C    998 MOH     0.1166 ****
6292 HC2    19.956689   18.255067    3.893330 H    998 MOH     0.0372 ****
6293 HC3    19.713625   19.928477    3.284511 H    998 MOH     0.0372 ****
6294 O1     19.439384   18.412651    1.907774 O    998 MOH    -0.6497 ****
6295 HO1    18.844713   17.659841    1.863934 H    998 MOH     0.4215 ****
6296 HC1    21.212426   14.185240   -0.603162 H    999 MOH     0.0372 ****
6297 C1     22.126949   14.491426   -1.110865 C    999 MOH     0.1166 ****
6298 HC2    22.722197   15.145848   -0.473761 H    999 MOH     0.0372 ****
6299 HC3    21.851553   15.037662   -2.013133 H    999 MOH     0.0372 ****
6300 O1     22.829007   13.352005   -1.508966 O    999 MOH    -0.6497 ****
6301 HO1    23.763737   13.550822   -1.419163 H    999 MOH     0.4215 ****
6302 HC1    18.158243   13.847619   -5.458864 H    1000 MOH     0.0372 ****
6303 C1     18.200967   14.089302   -4.396790 C    1000 MOH     0.1166 ****
6304 HC2    19.237888   14.027248   -4.065864 H    1000 MOH     0.0372 ****
6305 HC3    17.603410   13.387523   -3.814841 H    1000 MOH     0.0372 ****
6306 O1     17.767377   15.383041   -4.127382 O    1000 MOH    -0.6497 ****
6307 HO1    16.997769   15.574509   -4.668319 H    1000 MOH     0.4215 ****
6308 HC1    15.554971   17.785173    2.256378 H    1001 MOH     0.0372 ****
6309 C1     15.120226   16.899683    2.719533 C    1001 MOH     0.1166 ****
6310 HC2    14.707998   16.224849    1.969292 H    1001 MOH     0.0372 ****
6311 HC3    14.298079   17.185865    3.376435 H    1001 MOH     0.0372 ****
6312 O1     16.025511   16.197088    3.515028 O    1001 MOH    -0.6497 ****
6313 HO1    15.498968   15.479387    3.875652 H    1001 MOH     0.4215 ****
6314 HC1    29.218542   12.689418    8.975307 H    1002 MOH     0.0372 ****
6315 C1     29.518187   11.642262    8.960457 C    1002 MOH     0.1166 ****
6316 HC2    30.152118   11.453651    8.093544 H    1002 MOH     0.0372 ****
6317 HC3    28.650430   10.988248    8.881261 H    1002 MOH     0.0372 ****
6318 O1     30.223132   11.331176   10.154054 O    1002 MOH    -0.6497 ****
6319 HO1    30.657299   10.482836   10.035260 H    1002 MOH     0.4215 ****
6320 HC1    21.467615   15.957038   -5.072077 H    1003 MOH     0.0372 ****
6321 C1     20.927215   16.826606   -5.445429 C    1003 MOH     0.1166 ****
6322 HC2    20.483810   16.497150   -6.385174 H    1003 MOH     0.0372 ****
6323 HC3    21.650058   17.629631   -5.591800 H    1003 MOH     0.0372 ****
6324 O1     19.935905   17.165044   -4.451944 O    1003 MOH    -0.6497 ****
6325 HO1    19.300242   16.451018   -4.369213 H    1003 MOH     0.4215 ****
6326 HC1    19.911079    9.185015   -9.381186 H    1004 MOH     0.0372 ****
6327 C1     20.323884   10.192572   -9.417955 C    1004 MOH     0.1166 ****
6328 HC2    20.238436   10.663282   -8.438612 H    1004 MOH     0.0372 ****
6329 HC3    19.747111   10.780449  -10.132133 H    1004 MOH     0.0372 ****
6330 O1     21.663337   10.137050   -9.849290 O    1004 MOH    -0.6497 ****
6331 HO1    21.696823    9.476504  -10.545083 H    1004 MOH     0.4215 ****
6332 HC1    29.892310   13.805161    1.551392 H    1005 MOH     0.0372 ****
6333 C1     29.752014   13.650843    0.482247 C    1005 MOH     0.1166 ****
6334 HC2    29.555715   14.605328   -0.007071 H    1005 MOH     0.0372 ****
6335 HC3    28.917743   12.971926    0.306177 H    1005 MOH     0.0372 ****
6336 O1     30.927499   13.096442   -0.069296 O    1005 MOH    -0.6497 ****
6337 HO1    31.574132   12.995605    0.632861 H    1005 MOH     0.4215 ****
6338 HC1    27.348505   13.598995   -5.817367 H    1006 MOH     0.0372 ****
6339 C1     27.187424   12.586131   -5.448965 C    1006 MOH     0.1166 ****
6340 HC2    26.436292   12.631039   -4.661248 H    1006 MOH     0.0372 ****
6341 HC3    28.112339   12.185640   -5.033893 H    1006 MOH     0.0372 ****
6342 O1     26.735936   11.739424   -6.505382 O    1006 MOH    -0.6497 ****
6343 HO1    27.140659   10.881287   -6.355476 H    1006 MOH     0.4215 ****
6344 HC1    30.082258   17.645144   -0.253144 H    1007 MOH     0.0372 ****
6345 C1     29.018779   17.846002   -0.384666 C    1007 MOH     0.1166 ****
6346 HC2    28.436810   16.924994   -0.357796 H    1007 MOH     0.0372 ****
6347 HC3    28.853657   18.316713   -1.354109 H    1007 MOH     0.0372 ****
6348 O1     28.568446   18.736392    0.594677 O    1007 MOH    -0.6497 ****
6349 HO1    28.678720   19.630864    0.264458 H    1007 MOH     0.4215 ****
6350 HC1    29.562643    9.316879    2.153847 H    1008 MOH     0.0372 ****
6351 C1     29.376736    9.902715    1.253701 C    1008 MOH     0.1166 ****
6352 HC2    29.394634    9.278912    0.359918 H    1008 MOH     0.0372 ****
6353 HC3    30.124405   10.688185    1.144806 H    1008 MOH     0.0372 ****
6354 O1     28.134279   10.491001    1.383101 O    1008 MOH    -0.6497 ****
6355 HO1    27.835789   10.601637    0.477297 H    1008 MOH     0.4215 ****
6356 HC1    28.992799   21.244669   -5.513311 H    1009 MOH     0.0372 ****
6357 C1     28.755508   20.958079   -4.488007 C    1009 MOH     0.1166 ****
6358 HC2    29.517610   20.295492   -4.078592 H    1009 MOH     0.0372 ****
6359 HC3    27.802302   20.429398   -4.507098 H    1009 MOH     0.0372 ****
6360 O1     28.653894   22.084436   -3.650085 O    1009 MOH    -0.6497 ****
6361 HO1    29.427543   22.640879   -3.769586 H    1009 MOH     0.4215 ****
6362 HC1    26.683975    6.262365    0.838629 H    1010 MOH     0.0372 ****
6363 C1     26.276943    7.262982    0.693672 C    1010 MOH     0.1166 ****
6364 HC2    25.231361    7.217258    0.388202 H    1010 MOH     0.0372 ****
6365 HC3    26.833508    7.720628   -0.123036 H    1010 MOH     0.0372 ****
6366 O1     26.431673    8.086827    1.850499 O    1010 MOH    -0.6497 ****
6367 HO1    26.714574    8.967010    1.590283 H    1010 MOH     0.4215 ****
6368 HC1    26.089881   10.667773    3.061065 H    1011 MOH     0.0372 ****
6369 C1     26.178216   11.653692    3.517149 C    1011 MOH     0.1166 ****
6370 HC2    25.577194   11.685536    4.425074 H    1011 MOH     0.0372 ****
6371 HC3    25.826032   12.388948    2.793779 H    1011 MOH     0.0372 ****
6372 O1     27.518246   11.857408    3.824741 O    1011 MOH    -0.6497 ****
6373 HO1    28.003220   11.390781    3.140969 H    1011 MOH     0.4215 ****
6374 HC1    28.053450    5.830439    3.874945 H    1012 MOH     0.0372 ****
6375 C1     29.129630    5.838604    3.705240 C    1012 MOH     0.1166 ****
6376 HC2    29.549941    6.698783    4.224963 H    1012 MOH     0.0372 ****
6377 HC3    29.333435    5.899025    2.636094 H    1012 MOH     0.0372 ****
6378 O1     29.723147    4.693876    4.205871 O    1012 MOH    -0.6497 ****
6379 HO1    29.261266    4.432597    5.004902 H    1012 MOH     0.4215 ****
6380 HC1    24.699622   20.498392   -3.526341 H    1013 MOH     0.0372 ****
6381 C1     24.117075   19.625557   -3.230771 C    1013 MOH     0.1166 ****
6382 HC2    24.453093   18.710672   -3.717967 H    1013 MOH     0.0372 ****
6383 HC3    23.096898   19.805594   -3.568061 H    1013 MOH     0.0372 ****
6384 O1     24.110147   19.478587   -1.827871 O    1013 MOH    -0.6497 ****
6385 HO1    23.923663   20.340400   -1.446740 H    1013 MOH     0.4215 ****
6386 HC1    23.868815   17.483886    0.744584 H    1014 MOH     0.0372 ****
6387 C1     24.900540   17.200154    0.538815 C    1014 MOH     0.1166 ****
6388 HC2    25.171317   16.374267    1.195718 H    1014 MOH     0.0372 ****
6389 HC3    25.548904   18.050943    0.749533 H    1014 MOH     0.0372 ****
6390 O1     25.038526   16.880904   -0.823072 O    1014 MOH    -0.6497 ****
6391 HO1    24.741768   17.673722   -1.275621 H    1014 MOH     0.4215 ****
6392 HC1    29.362880   16.756388   -4.941969 H    1015 MOH     0.0372 ****
6393 C1     29.377314   17.463882   -5.771405 C    1015 MOH     0.1166 ****
6394 HC2    28.386581   17.894992   -5.912827 H    1015 MOH     0.0372 ****
6395 HC3    29.716218   16.970718   -6.682159 H    1015 MOH     0.0372 ****
6396 O1     30.254309   18.515530   -5.464521 O    1015 MOH    -0.6497 ****
6397 HO1    30.450608   18.522470   -4.524776 H    1015 MOH     0.4215 ****
6398 HC1    25.219237    9.009060    8.936416 H    1016 MOH     0.0372 ****
6399 C1     26.211702    9.029881    8.485989 C    1016 MOH     0.1166 ****
6400 HC2    26.734781    9.941091    8.775902 H    1016 MOH     0.0372 ****
6401 HC3    26.151658    8.974359    7.399873 H    1016 MOH     0.0372 ****
6402 O1     26.946669    7.965169    8.934294 O    1016 MOH    -0.6497 ****
6403 HO1    26.499800    7.169085    8.638724 H    1016 MOH     0.4215 ****
6404 HC1    23.159251   21.238546    1.941715 H    1017 MOH     0.0372 ****
6405 C1     22.919651   20.605761    2.795900 C    1017 MOH     0.1166 ****
6406 HC2    21.874070   20.730277    3.076622 H    1017 MOH     0.0372 ****
6407 HC3    23.551849   20.913172    3.629579 H    1017 MOH     0.0372 ****
6408 O1     23.221605   19.255684    2.479824 O    1017 MOH    -0.6497 ****
6409 HO1    22.759148   18.982566    1.684328 H    1017 MOH     0.4215 ****
6410 HC1    20.565794   13.300158   -7.158042 H    1018 MOH     0.0372 ****
6411 C1     21.353877   13.334451   -7.910403 C    1018 MOH     0.1166 ****
6412 HC2    20.933566   13.725961   -8.837420 H    1018 MOH     0.0372 ****
6413 HC3    21.751671   12.336692   -8.097080 H    1018 MOH     0.0372 ****
6414 O1     22.360199   14.234638   -7.560386 O    1018 MOH    -0.6497 ****
6415 HO1    23.187542   13.769643   -7.703928 H    1018 MOH     0.4215 ****
6416 HC1    23.769511   12.679620   -9.876160 H    1019 MOH     0.0372 ****
6417 C1     24.199637   12.109706   -9.051674 C    1019 MOH     0.1166 ****
6418 HC2    24.975018   11.465898   -9.466745 H    1019 MOH     0.0372 ****
6419 HC3    23.454277   11.460999   -8.591347 H    1019 MOH     0.0372 ****
6420 O1     24.768904   13.004178   -8.111929 O    1019 MOH    -0.6497 ****
6421 HO1    25.183441   12.464882   -7.435228 H    1019 MOH     0.4215 ****
6422 HC1    23.920776   15.840279    3.683319 H    1020 MOH     0.0372 ****
6423 C1     22.910991   16.239545    3.775243 C    1020 MOH     0.1166 ****
6424 HC2    22.298422   15.498167    4.288603 H    1020 MOH     0.0372 ****
6425 HC3    22.509732   16.431422    2.779637 H    1020 MOH     0.0372 ****
6426 O1     22.979118   17.428364    4.537504 O    1020 MOH    -0.6497 ****
6427 HO1    23.313404   18.121570    3.963334 H    1020 MOH     0.4215 ****
6428 HC1    30.537788   11.832505   -7.266229 H    1021 MOH     0.0372 ****
6429 C1     30.843206   10.852301   -7.633217 C    1021 MOH     0.1166 ****
6430 HC2    31.792370   10.931909   -8.162840 H    1021 MOH     0.0372 ****
6431 HC3    30.076485   10.459974   -8.300019 H    1021 MOH     0.0372 ****
6432 O1     30.996781    9.931701   -6.559122 O    1021 MOH    -0.6497 ****
6433 HO1    31.846064    9.497733   -6.667310 H    1021 MOH     0.4215 ****
6434 HC1    19.664550   23.076480    2.107178 H    1022 MOH     0.0372 ****
6435 C1     20.527111   23.539433    1.627760 C    1022 MOH     0.1166 ****
6436 HC2    21.314040   23.654151    2.373758 H    1022 MOH     0.0372 ****
6437 HC3    20.210146   24.531476    1.305319 H    1022 MOH     0.0372 ****
6438 O1     20.909895   22.751922    0.468812 O    1022 MOH    -0.6497 ****
6439 HO1    20.215920   22.798054   -0.192333 H    1022 MOH     0.4215 ****
6440 HC1    26.350844   18.513897    8.367902 H    1023 MOH     0.0372 ****
6441 C1     26.958793   19.384690    8.119707 C    1023 MOH     0.1166 ****
6442 HC2    28.008416   19.115246    8.005156 H    1023 MOH     0.0372 ****
6443 HC3    26.902213   20.106882    8.935001 H    1023 MOH     0.0372 ****
6444 O1     26.563886   19.946848    6.909848 O    1023 MOH    -0.6497 ****
6445 HO1    26.845633   19.348356    6.214055 H    1023 MOH     0.4215 ****
6446 HC1    27.823664   15.507964  -12.341134 H    1024 MOH     0.0372 ****
6447 C1     28.747425   15.696167  -12.889142 C    1024 MOH     0.1166 ****
6448 HC2    29.338054   14.781282  -12.851666 H    1024 MOH     0.0372 ****
6449 HC3    29.269927   16.519604  -12.401946 H    1024 MOH     0.0372 ****
6450 O1     28.474338   16.048485  -14.243252 O    1024 MOH    -0.6497 ****
6451 HO1    29.256070   16.470614  -14.606705 H    1024 MOH     0.4215 ****
6452 HC1    25.410340   10.769835   -1.430477 H    1025 MOH     0.0372 ****
6453 C1     26.267128   10.511822   -2.054145 C    1025 MOH     0.1166 ****
6454 HC2    26.453035   11.305048   -2.777515 H    1025 MOH     0.0372 ****
6455 HC3    26.021177    9.607960   -2.611345 H    1025 MOH     0.0372 ****
6456 O1     27.430489   10.321170   -1.252993 O    1025 MOH    -0.6497 ****
6457 HO1    28.126773    9.973342   -1.814436 H    1025 MOH     0.4215 ****
6458 HC1    31.465012   10.429764   -2.247185 H    1026 MOH     0.0372 ****
6459 C1     30.966759    9.654092   -2.827013 C    1026 MOH     0.1166 ****
6460 HC2    31.693643    8.908631   -3.149453 H    1026 MOH     0.0372 ****
6461 HC3    30.504302   10.128069   -3.693218 H    1026 MOH     0.0372 ****
6462 O1     29.991614    9.023349   -2.030103 O    1026 MOH    -0.6497 ****
6463 HO1    30.463310    8.654292   -1.280570 H    1026 MOH     0.4215 ****
6464 HC1    26.545988   22.449410   -0.878227 H    1027 MOH     0.0372 ****
6465 C1     26.727276   21.411235   -0.598919 C    1027 MOH     0.1166 ****
6466 HC2    26.067942   20.773959   -1.187939 H    1027 MOH     0.0372 ****
6467 HC3    26.502687   21.256509    0.456791 H    1027 MOH     0.0372 ****
6468 O1     28.057491   21.015642   -0.840043 O    1027 MOH    -0.6497 ****
6469 HO1    28.237047   21.123828   -1.776959 H    1027 MOH     0.4215 ****
6470 HC1    30.434442   16.661266    2.780344 H    1028 MOH     0.0372 ****
6471 C1     30.888239   17.540633    3.237135 C    1028 MOH     0.1166 ****
6472 HC2    31.725397   17.857433    2.614881 H    1028 MOH     0.0372 ****
6473 HC3    31.191926   17.291601    4.253955 H    1028 MOH     0.0372 ****
6474 O1     29.937921   18.538392    3.201780 O    1028 MOH    -0.6497 ****
6475 HO1    29.609986   18.593913    2.300926 H    1028 MOH     0.4215 ****
6476 HC1    22.267245   28.133859    0.451134 H    1029 MOH     0.0372 ****
6477 C1     21.359651   28.070173    1.050761 C    1029 MOH     0.1166 ****
6478 HC2    20.748814   27.223466    0.738219 H    1029 MOH     0.0372 ****
6479 HC3    20.810590   29.002204    0.918532 H    1029 MOH     0.0372 ****
6480 O1     21.731464   27.886869    2.375172 O    1029 MOH    -0.6497 ****
6481 HO1    22.258585   27.084253    2.373757 H    1029 MOH     0.4215 ****
6482 HC1    27.707040   14.206469   -9.845048 H    1030 MOH     0.0372 ****
6483 C1     27.987054   13.298116   -9.311182 C    1030 MOH     0.1166 ****
6484 HC2    28.795345   12.802503   -9.848583 H    1030 MOH     0.0372 ****
6485 HC3    27.156247   12.592255   -9.287847 H    1030 MOH     0.0372 ****
6486 O1     28.424686   13.559395   -7.991721 O    1030 MOH    -0.6497 ****
6487 HO1    28.077121   12.854759   -7.440177 H    1030 MOH     0.4215 ****
6488 HC1    31.397462   15.908048   12.041322 H    1031 MOH     0.0372 ****
6489 C1     30.506033   16.534709   12.009502 C    1031 MOH     0.1166 ****
6490 HC2    29.617491   15.903965   11.969197 H    1031 MOH     0.0372 ****
6491 HC3    30.515271   17.152797   11.111476 H    1031 MOH     0.0372 ****
6492 O1     30.516426   17.382233   13.130973 O    1031 MOH    -0.6497 ****
6493 HO1    31.272177   17.962353   13.014300 H    1031 MOH     0.4215 ****
6494 HC1    27.296543   15.076038    7.077432 H    1032 MOH     0.0372 ****
6495 C1     27.641799   14.233005    6.479927 C    1032 MOH     0.1166 ****
6496 HC2    28.381962   13.701058    7.078846 H    1032 MOH     0.0372 ****
6497 HC3    28.083472   14.618800    5.561395 H    1032 MOH     0.0372 ****
6498 O1     26.589289   13.315263    6.146172 O    1032 MOH    -0.6497 ****
6499 HO1    26.868149   12.802095    5.384618 H    1032 MOH     0.4215 ****
6500 HC1    27.815581   15.740258   -4.376991 H    1033 MOH     0.0372 ****
6501 C1     27.185115   15.426723   -3.545433 C    1033 MOH     0.1166 ****
6502 HC2    26.208816   15.114005   -3.915957 H    1033 MOH     0.0372 ****
6503 HC3    27.014796   16.253834   -2.855297 H    1033 MOH     0.0372 ****
6504 O1     27.787291   14.372626   -2.849640 O    1033 MOH    -0.6497 ****
6505 HO1    27.136617   14.018266   -2.240114 H    1033 MOH     0.4215 ****
6506 HC1    26.585825   17.545532    2.998133 H    1034 MOH     0.0372 ****
6507 C1     26.748638   17.321403    4.052429 C    1034 MOH     0.1166 ****
6508 HC2    27.316173   16.394680    4.144353 H    1034 MOH     0.0372 ****
6509 HC3    25.764833   17.203828    4.506392 H    1034 MOH     0.0372 ****
6510 O1     27.441458   18.397954    4.644277 O    1034 MOH    -0.6497 ****
6511 HO1    28.279771   18.488585    4.186072 H    1034 MOH     0.4215 ****
6512 HC1    24.521221   11.479370    7.757669 H    1035 MOH     0.0372 ****
6513 C1     24.128045   11.914155    8.676200 C    1035 MOH     0.1166 ****
6514 HC2    23.943870   12.978866    8.534779 H    1035 MOH     0.0372 ****
6515 HC3    24.827216   11.770043    9.499980 H    1035 MOH     0.0372 ****
6516 O1     22.963530   11.253201    9.005005 O    1035 MOH    -0.6497 ****
6517 HO1    22.539177   11.702682    9.739689 H    1035 MOH     0.4215 ****
6518 HC1    26.308120   17.440612   -6.337798 H    1036 MOH     0.0372 ****
6519 C1     26.174752   16.417950   -6.690644 C    1036 MOH     0.1166 ****
6520 HC2    25.175936   16.340383   -7.119151 H    1036 MOH     0.0372 ****
6521 HC3    26.248075   15.701066   -5.873229 H    1036 MOH     0.0372 ****
6522 O1     27.095048   16.140749   -7.702514 O    1036 MOH    -0.6497 ****
6523 HO1    27.211096   15.192797   -7.794438 H    1036 MOH     0.4215 ****
6524 HC1    28.495123    8.166027   -7.380073 H    1037 MOH     0.0372 ****
6525 C1     27.758424    8.511814   -6.655289 C    1037 MOH     0.1166 ****
6526 HC2    27.487646    7.703890   -5.974345 H    1037 MOH     0.0372 ****
6527 HC3    26.849674    8.811468   -7.175719 H    1037 MOH     0.0372 ****
6528 O1     28.198365    9.593263   -5.861208 O    1037 MOH    -0.6497 ****
6529 HO1    29.145796    9.524678   -5.725443 H    1037 MOH     0.4215 ****
6530 HC1    27.332339    5.915354   -1.617860 H    1038 MOH     0.0372 ****
6531 C1     28.367528    6.219499   -1.774131 C    1038 MOH     0.1166 ****
6532 HC2    28.956425    5.316862   -1.941715 H    1038 MOH     0.0372 ****
6533 HC3    28.740496    6.776350   -0.915703 H    1038 MOH     0.0372 ****
6534 O1     28.365219    6.951080   -2.950756 O    1038 MOH    -0.6497 ****
6535 HO1    29.002613    7.660208   -2.841155 H    1038 MOH     0.4215 ****
6536 HC1    18.810072   19.411226   -0.929138 H    1039 MOH     0.0372 ****
6537 C1     18.643795   20.481653   -0.810344 C    1039 MOH     0.1166 ****
6538 HC2    18.997133   20.802537    0.169706 H    1039 MOH     0.0372 ****
6539 HC3    17.576852   20.694759   -0.882469 H    1039 MOH     0.0372 ****
6540 O1     19.330842   21.196088   -1.820093 O    1039 MOH    -0.6497 ****
6541 HO1    19.240198   20.666182   -2.614881 H    1039 MOH     0.4215 ****
6542 HC1    21.288059   18.962153   -1.252993 H    1040 MOH     0.0372 ****
6543 C1     21.555372   17.957454   -0.924188 C    1040 MOH     0.1166 ****
6544 HC2    22.499917   17.668006   -1.384515 H    1040 MOH     0.0372 ****
6545 HC3    20.792693   17.243836   -1.233901 H    1040 MOH     0.0372 ****
6546 O1     21.722804   17.965211    0.504874 O    1040 MOH    -0.6497 ****
6547 HO1    20.894306   18.153005    0.951766 H    1040 MOH     0.4215 ****
6548 HC1    24.169614   25.039746    0.823779 H    1041 MOH     0.0372 ****
6549 C1     23.798955   24.642928    1.768474 C    1041 MOH     0.1166 ****
6550 HC2    24.653434   24.520046    2.433862 H    1041 MOH     0.0372 ****
6551 HC3    23.327260   23.667215    1.652509 H    1041 MOH     0.0372 ****
6552 O1     22.943900   25.578225    2.330624 O    1041 MOH    -0.6497 ****
6553 HO1    23.128652   25.579858    3.272490 H    1041 MOH     0.4215 ****
6554 HC1    24.053567   11.985190   12.975410 H    1042 MOH     0.0372 ****
6555 C1     24.947882   11.542649   13.415230 C    1042 MOH     0.1166 ****
6556 HC2    25.013700   11.815767   14.468112 H    1042 MOH     0.0372 ****
6557 HC3    25.838156   11.912522   12.906113 H    1042 MOH     0.0372 ****
6558 O1     24.896498   10.130110   13.299265 O    1042 MOH    -0.6497 ****
6559 HO1    25.801783    9.821882   13.387653 H    1042 MOH     0.4215 ****
6560 HC1    22.707186    7.626731   -8.688928 H    1043 MOH     0.0372 ****
6561 C1     23.221028    7.935775   -7.778882 C    1043 MOH     0.1166 ****
6562 HC2    24.304137    7.909647   -7.894847 H    1043 MOH     0.0372 ****
6563 HC3    22.917919    7.296458   -6.948738 H    1043 MOH     0.0372 ****
6564 O1     22.781664    9.193180   -7.496039 O    1043 MOH    -0.6497 ****
6565 HO1    22.449688    9.555296   -8.321232 H    1043 MOH     0.4215 ****
6566 HC1    23.457741   20.364894    6.561951 H    1044 MOH     0.0372 ****
6567 C1     23.391346   20.104432    7.618369 C    1044 MOH     0.1166 ****
6568 HC2    23.499311   19.026248    7.742112 H    1044 MOH     0.0372 ****
6569 HC3    22.407541   20.419191    7.966972 H    1044 MOH     0.0372 ****
6570 O1     24.375151   20.823357    8.341739 O    1044 MOH    -0.6497 ****
6571 HO1    25.197875   20.714355    7.858785 H    1044 MOH     0.4215 ****
6572 HC1    27.784404   15.728010   10.777722 H    1045 MOH     0.0372 ****
6573 C1     27.373908   14.771485   11.100870 C    1045 MOH     0.1166 ****
6574 HC2    28.152754   14.008877   11.122083 H    1045 MOH     0.0372 ****
6575 HC3    26.588712   14.492651   10.398712 H    1045 MOH     0.0372 ****
6576 O1     26.778083   14.916005   12.356691 O    1045 MOH    -0.6497 ****
6577 HO1    27.398734   15.365078   12.935105 H    1045 MOH     0.4215 ****
6578 HC1    16.083824   17.048694   -2.854590 H    1046 MOH     0.0372 ****
6579 C1     16.642699   17.681070   -2.165161 C    1046 MOH     0.1166 ****
6580 HC2    16.687732   18.681687   -2.595789 H    1046 MOH     0.0372 ****
6581 HC3    17.655949   17.286702   -2.084551 H    1046 MOH     0.0372 ****
6582 O1     15.977591   17.693318   -0.876812 O    1046 MOH    -0.6497 ****
6583 HO1    16.444668   17.075230   -0.311127 H    1046 MOH     0.4215 ****
6584 HC1    24.558748   10.835563   -4.955404 H    1047 MOH     0.0372 ****
6585 C1     23.676557   11.418950   -4.694482 C    1047 MOH     0.1166 ****
6586 HC2    23.980821   12.417525   -4.383355 H    1047 MOH     0.0372 ****
6587 HC3    23.141354   10.929052   -3.881309 H    1047 MOH     0.0372 ****
6588 O1     22.855565   11.474063   -5.861915 O    1047 MOH    -0.6497 ****
6589 HO1    22.764921   10.585307   -6.214761 H    1047 MOH     0.4215 ****
6590 HC1    26.289067   12.698400    0.111016 H    1048 MOH     0.0372 ****
6591 C1     25.977298   13.741882    0.075661 C    1048 MOH     0.1166 ****
6592 HC2    26.783279   14.399162    0.403758 H    1048 MOH     0.0372 ****
6593 HC3    25.134367   13.865173    0.754483 H    1048 MOH     0.0372 ****
6594 O1     25.524078   14.088077   -1.218345 O    1048 MOH    -0.6497 ****
6595 HO1    25.312768   15.023782   -1.188646 H    1048 MOH     0.4215 ****
6596 HC1     2.888137  -29.811107  -11.445796 H    1049 MOH     0.0372 ****
6597 C1      2.433762  -29.513085  -12.390490 C    1049 MOH     0.1166 ****
6598 HC2     1.352963  -29.647807  -12.342407 H    1049 MOH     0.0372 ****
6599 HC3     2.856383  -30.137705  -13.178207 H    1049 MOH     0.0372 ****
6600 O1      2.715509  -28.155660  -12.649999 O    1049 MOH    -0.6497 ****
6601 HO1     2.445887  -27.961334  -13.550853 H    1049 MOH     0.4215 ****
6602 HC1     3.929100  -26.897439   -8.322505 H    1050 MOH     0.0372 ****
6603 C1      3.587308  -27.566966   -9.111636 C    1050 MOH     0.1166 ****
6604 HC2     3.089055  -28.443067   -8.695858 H    1050 MOH     0.0372 ****
6605 HC3     4.459685  -27.884991   -9.682272 H    1050 MOH     0.0372 ****
6606 O1      2.806153  -26.837018  -10.033704 O    1050 MOH    -0.6497 ****
6607 HO1     2.833289  -27.324058  -10.860311 H    1050 MOH     0.4215 ****
6608 HC1    -0.929303  -29.274669  -13.753792 H    1051 MOH     0.0372 ****
6609 C1     -1.836897  -29.338355  -13.154166 C    1051 MOH     0.1166 ****
6610 HC2    -2.447734  -30.185062  -13.466707 H    1051 MOH     0.0372 ****
6611 HC3    -2.385958  -28.406324  -13.286395 H    1051 MOH     0.0372 ****
6612 O1     -1.465084  -29.521659  -11.829755 O    1051 MOH    -0.6497 ****
6613 HO1    -0.937963  -30.324275  -11.831169 H    1051 MOH     0.4215 ****
6614 HC1     3.737419  -26.826812  -15.390037 H    1052 MOH     0.0372 ****
6615 C1      2.829825  -26.447141  -15.859556 C    1052 MOH     0.1166 ****
6616 HC2     2.960306  -26.467145  -16.942137 H    1052 MOH     0.0372 ****
6617 HC3     2.686642  -25.416314  -15.537823 H    1052 MOH     0.0372 ****
6618 O1      1.689558  -27.240367  -15.485497 O    1052 MOH    -0.6497 ****
6619 HO1     0.916486  -26.735364  -15.747834 H    1052 MOH     0.4215 ****
6620 HC1     0.970757  -30.955018  -16.456354 H    1053 MOH     0.0372 ****
6621 C1      1.537138  -30.650057  -15.576007 C    1053 MOH     0.1166 ****
6622 HC2     1.922807  -31.543713  -15.084567 H    1053 MOH     0.0372 ****
6623 HC3     0.883000  -30.126274  -14.879506 H    1053 MOH     0.0372 ****
6624 O1      2.631794  -29.835602  -15.981179 O    1053 MOH    -0.6497 ****
6625 HO1     2.280765  -28.960317  -16.157955 H    1053 MOH     0.4215 ****
6626 HC1    13.023406  -18.152515  -15.906225 H    1054 MOH     0.0372 ****
6627 C1     11.987062  -18.013711  -15.599341 C    1054 MOH     0.1166 ****
6628 HC2    11.423568  -17.649554  -16.457769 H    1054 MOH     0.0372 ****
6629 HC3    11.917203  -17.263759  -14.810917 H    1054 MOH     0.0372 ****
6630 O1     11.461673  -19.256419  -15.182148 O    1054 MOH    -0.6497 ****
6631 HO1    10.698993  -19.104142  -14.619998 H    1054 MOH     0.4215 ****
6632 HC1     7.521835  -28.693486  -11.814906 H    1055 MOH     0.0372 ****
6633 C1      6.721050  -29.087446  -11.189116 C    1055 MOH     0.1166 ****
6634 HC2     6.155247  -29.817802  -11.768236 H    1055 MOH     0.0372 ****
6635 HC3     6.048437  -28.310549  -10.827784 H    1055 MOH     0.0372 ****
6636 O1      7.218149  -29.828416  -10.144719 O    1055 MOH    -0.6497 ****
6637 HO1     7.762590  -29.232374   -9.625703 H    1055 MOH     0.4215 ****
6638 HC1    25.889656  -22.705300  -13.089112 H    1056 MOH     0.0372 ****
6639 C1     26.323246  -22.512199  -12.108355 C    1056 MOH     0.1166 ****
6640 HC2    26.609035  -21.461368  -12.057443 H    1056 MOH     0.0372 ****
6641 HC3    27.211211  -23.131512  -11.981783 H    1056 MOH     0.0372 ****
6642 O1     25.368886  -22.826958  -11.100728 O    1056 MOH    -0.6497 ****
6643 HO1    25.569804  -23.718573  -10.807985 H    1056 MOH     0.4215 ****
6644 HC1    14.073028  -19.603838  -11.237199 H    1057 MOH     0.0372 ****
6645 C1     14.676937  -19.052295  -10.516657 C    1057 MOH     0.1166 ****
6646 HC2    15.488691  -19.687529  -10.163104 H    1057 MOH     0.0372 ****
6647 HC3    14.028572  -18.766521   -9.687928 H    1057 MOH     0.0372 ****
6648 O1     15.181541  -17.928387  -11.172145 O    1057 MOH    -0.6497 ****
6649 HO1    15.994450  -17.666700  -10.733032 H    1057 MOH     0.4215 ****
6650 HC1    12.134863  -24.925354   -6.852430 H    1058 MOH     0.0372 ****
6651 C1     11.114686  -25.218068   -6.604236 C    1058 MOH     0.1166 ****
6652 HC2    10.953605  -25.160505   -5.528726 H    1058 MOH     0.0372 ****
6653 HC3    10.906262  -26.240322   -6.921019 H    1058 MOH     0.0372 ****
6654 O1     10.228453  -24.325638   -7.205276 O    1058 MOH    -0.6497 ****
6655 HO1    10.679941  -23.949233   -7.964709 H    1058 MOH     0.4215 ****
6656 HC1    24.842343  -19.952482  -16.175633 H    1059 MOH     0.0372 ****
6657 C1     24.890840  -21.040056  -16.226545 C    1059 MOH     0.1166 ****
6658 HC2    24.512676  -21.394823  -17.184674 H    1059 MOH     0.0372 ****
6659 HC3    24.284045  -21.486679  -15.438828 H    1059 MOH     0.0372 ****
6660 O1     26.227406  -21.474432  -16.153005 O    1059 MOH    -0.6497 ****
6661 HO1    26.195075  -22.433815  -16.131792 H    1059 MOH     0.4215 ****
6662 HC1    15.932096  -20.977185  -21.749049 H    1060 MOH     0.0372 ****
6663 C1     15.977707  -21.431974  -22.738998 C    1060 MOH     0.1166 ****
6664 HC2    16.895117  -22.010870  -22.847893 H    1060 MOH     0.0372 ****
6665 HC3    15.967315  -20.654261  -23.501966 H    1060 MOH     0.0372 ****
6666 O1     14.874391  -22.268475  -22.956080 O    1060 MOH    -0.6497 ****
6667 HO1    15.133621  -23.156006  -22.698693 H    1060 MOH     0.4215 ****
6668 HC1     9.614152  -26.820851  -14.808089 H    1061 MOH     0.0372 ****
6669 C1     10.528675  -26.514665  -15.315791 C    1061 MOH     0.1166 ****
6670 HC2    11.123923  -25.860243  -14.678688 H    1061 MOH     0.0372 ****
6671 HC3    10.253279  -25.968429  -16.218059 H    1061 MOH     0.0372 ****
6672 O1     11.230733  -27.654086  -15.713892 O    1061 MOH    -0.6497 ****
6673 HO1    12.165463  -27.455269  -15.624090 H    1061 MOH     0.4215 ****
6674 HC1     6.559969  -27.158473  -19.663791 H    1062 MOH     0.0372 ****
6675 C1      6.602693  -26.916790  -18.601716 C    1062 MOH     0.1166 ****
6676 HC2     7.639614  -26.978843  -18.270790 H    1062 MOH     0.0372 ****
6677 HC3     6.005136  -27.618569  -18.019768 H    1062 MOH     0.0372 ****
6678 O1      6.169103  -25.623051  -18.332309 O    1062 MOH    -0.6497 ****
6679 HO1     5.399495  -25.431582  -18.873245 H    1062 MOH     0.4215 ****
6680 HC1    29.638392  -22.286846  -13.922791 H    1063 MOH     0.0372 ****
6681 C1     29.720953  -21.347058  -13.376904 C    1063 MOH     0.1166 ****
6682 HC2    28.894187  -20.691411  -13.649847 H    1063 MOH     0.0372 ****
6683 HC3    30.678200  -20.884921  -13.621563 H    1063 MOH     0.0372 ****
6684 O1     29.679961  -21.705092  -12.035523 O    1063 MOH    -0.6497 ****
6685 HO1    29.903973  -20.962080  -11.471251 H    1063 MOH     0.4215 ****
6686 HC1    17.545790  -17.662617  -14.179471 H    1064 MOH     0.0372 ****
6687 C1     16.880105  -16.803663  -14.094618 C    1064 MOH     0.1166 ****
6688 HC2    15.837988  -17.123730  -14.101689 H    1064 MOH     0.0372 ****
6689 HC3    17.015205  -16.179043  -14.977087 H    1064 MOH     0.0372 ****
6690 O1     17.105849  -16.006762  -12.891122 O    1064 MOH    -0.6497 ****
6691 HO1    17.033103  -16.573819  -12.121083 H    1064 MOH     0.4215 ****
6692 HC1     9.869341  -25.049054  -19.277003 H    1065 MOH     0.0372 ****
6693 C1      9.328941  -24.179485  -19.650356 C    1065 MOH     0.1166 ****
6694 HC2     8.885536  -24.508941  -20.590101 H    1065 MOH     0.0372 ****
6695 HC3    10.051784  -23.376461  -19.796727 H    1065 MOH     0.0372 ****
6696 O1      8.337631  -23.841047  -18.656871 O    1065 MOH    -0.6497 ****
6697 HO1     7.701968  -24.555073  -18.574139 H    1065 MOH     0.4215 ****
6698 HC1    14.486411  -13.408670  -11.445796 H    1066 MOH     0.0372 ****
6699 C1     14.032037  -13.110649  -12.390490 C    1066 MOH     0.1166 ****
6700 HC2    12.951237  -13.245371  -12.342407 H    1066 MOH     0.0372 ****
6701 HC3    14.454657  -13.735269  -13.178207 H    1066 MOH     0.0372 ****
6702 O1     14.313783  -11.753223  -12.649999 O    1066 MOH    -0.6497 ****
6703 HO1    14.044161  -11.558897  -13.550853 H    1066 MOH     0.4215 ****
6704 HC1    15.527374  -10.495002   -8.322505 H    1067 MOH     0.0372 ****
6705 C1     15.185582  -11.164529   -9.111636 C    1067 MOH     0.1166 ****
6706 HC2    14.687329  -12.040630   -8.695858 H    1067 MOH     0.0372 ****
6707 HC3    16.057959  -11.482555   -9.682272 H    1067 MOH     0.0372 ****
6708 O1     14.404427  -10.434581  -10.033704 O    1067 MOH    -0.6497 ****
6709 HO1    14.431563  -10.921622  -10.860311 H    1067 MOH     0.4215 ****
6710 HC1    21.057235  -19.164563  -11.363064 H    1068 MOH     0.0372 ****
6711 C1     21.539899  -20.130478  -11.510142 C    1068 MOH     0.1166 ****
6712 HC2    20.766827  -20.884513  -11.657928 H    1068 MOH     0.0372 ****
6713 HC3    22.104548  -20.372978  -10.610703 H    1068 MOH     0.0372 ****
6714 O1     22.448071  -20.102717  -12.633028 O    1068 MOH    -0.6497 ****
6715 HO1    23.159367  -19.498510  -12.403925 H    1068 MOH     0.4215 ****
6716 HC1    23.621824  -15.892861   -3.227094 H    1069 MOH     0.0372 ****
6717 C1     22.910529  -16.718747   -3.237700 C    1069 MOH     0.1166 ****
6718 HC2    23.272528  -17.449920   -3.961070 H    1069 MOH     0.0372 ****
6719 HC3    21.921528  -16.346425   -3.507815 H    1069 MOH     0.0372 ****
6720 O1     22.847020  -17.292336   -1.952887 O    1069 MOH    -0.6497 ****
6721 HO1    22.571047  -16.608520   -1.338411 H    1069 MOH     0.4215 ****
6722 HC1    19.551505  -14.363155  -20.235133 H    1070 MOH     0.0372 ****
6723 C1     18.970691  -13.981851  -19.395090 C    1070 MOH     0.1166 ****
6724 HC2    19.268026  -12.974702  -19.103055 H    1070 MOH     0.0372 ****
6725 HC3    19.178537  -14.637089  -18.548683 H    1070 MOH     0.0372 ****
6726 O1     17.591401  -14.025533  -19.680054 O    1070 MOH    -0.6497 ****
6727 HO1    17.186101  -14.700368  -19.130632 H    1070 MOH     0.4215 ****
6728 HC1    18.483984  -23.360947  -14.458071 H    1071 MOH     0.0372 ****
6729 C1     17.420505  -23.160089  -14.589592 C    1071 MOH     0.1166 ****
6730 HC2    16.838536  -24.081097  -14.562722 H    1071 MOH     0.0372 ****
6731 HC3    17.255383  -22.689379  -15.559036 H    1071 MOH     0.0372 ****
6732 O1     16.970172  -22.269699  -13.610250 O    1071 MOH    -0.6497 ****
6733 HO1    17.080446  -21.375227  -13.940468 H    1071 MOH     0.4215 ****
6734 HC1    22.196924  -20.433399  -17.254678 H    1072 MOH     0.0372 ****
6735 C1     21.792779  -20.087612  -18.205737 C    1072 MOH     0.1166 ****
6736 HC2    20.859781  -20.610987  -18.417869 H    1072 MOH     0.0372 ****
6737 HC3    22.513889  -20.232540  -19.009717 H    1072 MOH     0.0372 ****
6738 O1     21.546250  -18.721614  -18.051587 O    1072 MOH    -0.6497 ****
6739 HO1    22.370707  -18.266008  -17.863497 H    1072 MOH     0.4215 ****
6740 HC1    17.394525  -19.761422  -19.718238 H    1073 MOH     0.0372 ****
6741 C1     17.157234  -20.048012  -18.692933 C    1073 MOH     0.1166 ****
6742 HC2    17.919336  -20.710599  -18.283518 H    1073 MOH     0.0372 ****
6743 HC3    16.204028  -20.576694  -18.712025 H    1073 MOH     0.0372 ****
6744 O1     17.055620  -18.921655  -17.855012 O    1073 MOH    -0.6497 ****
6745 HO1    17.829269  -18.365213  -17.974513 H    1073 MOH     0.4215 ****
6746 HC1    24.436466  -18.546067  -18.921329 H    1074 MOH     0.0372 ****
6747 C1     24.856777  -17.662617  -18.440496 C    1074 MOH     0.1166 ****
6748 HC2    25.110234  -16.920830  -19.197807 H    1074 MOH     0.0372 ****
6749 HC3    25.743587  -17.945534  -17.874103 H    1074 MOH     0.0372 ****
6750 O1     23.851610  -17.166188  -17.617424 O    1074 MOH    -0.6497 ****
6751 HO1    24.207835  -16.969820  -16.748389 H    1074 MOH     0.4215 ****
6752 HC1    18.787671  -16.238239   -6.345435 H    1075 MOH     0.0372 ****
6753 C1     18.744947  -15.364180   -6.995266 C    1075 MOH     0.1166 ****
6754 HC2    19.545732  -14.664034   -6.756971 H    1075 MOH     0.0372 ****
6755 HC3    17.805598  -14.848154   -6.800104 H    1075 MOH     0.0372 ****
6756 O1     18.745524  -15.718539   -8.386852 O    1075 MOH    -0.6497 ****
6757 HO1    18.854643  -14.926129   -8.917889 H    1075 MOH     0.4215 ****
6758 HC1    13.101348  -20.507700  -17.731268 H    1076 MOH     0.0372 ****
6759 C1     12.518802  -21.380535  -17.435697 C    1076 MOH     0.1166 ****
6760 HC2    12.854819  -22.295419  -17.922894 H    1076 MOH     0.0372 ****
6761 HC3    11.498624  -21.200497  -17.772987 H    1076 MOH     0.0372 ****
6762 O1     12.511873  -21.527504  -16.032797 O    1076 MOH    -0.6497 ****
6763 HO1    12.325389  -20.665692  -15.651667 H    1076 MOH     0.4215 ****
6764 HC1    12.270541  -23.522205  -13.460343 H    1077 MOH     0.0372 ****
6765 C1     13.302266  -23.805938  -13.666111 C    1077 MOH     0.1166 ****
6766 HC2    13.573043  -24.631824  -13.009209 H    1077 MOH     0.0372 ****
6767 HC3    13.950630  -22.955148  -13.455393 H    1077 MOH     0.0372 ****
6768 O1     13.440253  -24.125188  -15.027999 O    1077 MOH    -0.6497 ****
6769 HO1    13.143494  -23.332370  -15.480547 H    1077 MOH     0.4215 ****
6770 HC1    17.764606  -24.249704  -19.146896 H    1078 MOH     0.0372 ****
6771 C1     17.779040  -23.542209  -19.976332 C    1078 MOH     0.1166 ****
6772 HC2    16.788307  -23.111099  -20.117753 H    1078 MOH     0.0372 ****
6773 HC3    18.117944  -24.035373  -20.887085 H    1078 MOH     0.0372 ****
6774 O1     18.656035  -22.490562  -19.669448 O    1078 MOH    -0.6497 ****
6775 HO1    18.852334  -22.483622  -18.729703 H    1078 MOH     0.4215 ****
6776 HC1    11.560977  -19.767546  -12.263211 H    1079 MOH     0.0372 ****
6777 C1     11.321377  -20.400330  -11.409026 C    1079 MOH     0.1166 ****
6778 HC2    10.275796  -20.275815  -11.128305 H    1079 MOH     0.0372 ****
6779 HC3    11.953576  -20.092919  -10.575347 H    1079 MOH     0.0372 ****
6780 O1     11.623331  -21.750408  -11.725103 O    1079 MOH    -0.6497 ****
6781 HO1    11.160874  -22.023526  -12.520598 H    1079 MOH     0.4215 ****
6782 HC1     8.967520  -27.705934  -21.362968 H    1080 MOH     0.0372 ****
6783 C1      9.755603  -27.671641  -22.115330 C    1080 MOH     0.1166 ****
6784 HC2     9.335292  -27.280131  -23.042347 H    1080 MOH     0.0372 ****
6785 HC3    10.153398  -28.669400  -22.302006 H    1080 MOH     0.0372 ****
6786 O1     10.761925  -26.771453  -21.765312 O    1080 MOH    -0.6497 ****
6787 HO1    11.589268  -27.236448  -21.908855 H    1080 MOH     0.4215 ****
6788 HC1    12.322502  -25.165813  -10.521607 H    1081 MOH     0.0372 ****
6789 C1     11.312717  -24.766546  -10.429683 C    1081 MOH     0.1166 ****
6790 HC2    10.700148  -25.507925   -9.916324 H    1081 MOH     0.0372 ****
6791 HC3    10.911458  -24.574669  -11.425290 H    1081 MOH     0.0372 ****
6792 O1     11.380844  -23.577727   -9.667422 O    1081 MOH    -0.6497 ****
6793 HO1    11.715130  -22.884521  -10.241593 H    1081 MOH     0.4215 ****
6794 HC1     8.066276  -17.929612  -12.097748 H    1082 MOH     0.0372 ****
6795 C1      8.928838  -17.466658  -12.577167 C    1082 MOH     0.1166 ****
6796 HC2     9.715766  -17.351940  -11.831169 H    1082 MOH     0.0372 ****
6797 HC3     8.611872  -16.474615  -12.899607 H    1082 MOH     0.0372 ****
6798 O1      9.311621  -18.254169  -13.736115 O    1082 MOH    -0.6497 ****
6799 HO1     8.617646  -18.208037  -14.397260 H    1082 MOH     0.4215 ****
6800 HC1    14.752570  -22.492195   -5.837025 H    1083 MOH     0.0372 ****
6801 C1     15.360519  -21.621401   -6.085219 C    1083 MOH     0.1166 ****
6802 HC2    16.410142  -21.890845   -6.199771 H    1083 MOH     0.0372 ****
6803 HC3    15.303939  -20.899210   -5.269925 H    1083 MOH     0.0372 ****
6804 O1     14.965612  -21.059243   -7.295079 O    1083 MOH    -0.6497 ****
6805 HO1    15.247359  -21.657735   -7.990872 H    1083 MOH     0.4215 ****
6806 HC1    20.333237  -16.242322  -16.524944 H    1084 MOH     0.0372 ****
6807 C1     19.318256  -16.625667  -16.628888 C    1084 MOH     0.1166 ****
6808 HC2    18.597145  -15.808354  -16.607675 H    1084 MOH     0.0372 ****
6809 HC3    19.083274  -17.320505  -15.822787 H    1084 MOH     0.0372 ****
6810 O1     19.190661  -17.337652  -17.811171 O    1084 MOH    -0.6497 ****
6811 HO1    19.911194  -17.970845  -17.842991 H    1084 MOH     0.4215 ****
6812 HC1    23.207287  -24.524455   -9.265078 H    1085 MOH     0.0372 ****
6813 C1     22.584903  -23.629983   -9.274271 C    1085 MOH     0.1166 ****
6814 HC2    23.028886  -22.842880   -8.664745 H    1085 MOH     0.0372 ****
6815 HC3    21.613223  -23.908000   -8.864856 H    1085 MOH     0.0372 ****
6816 O1     22.405347  -23.177235  -10.595853 O    1085 MOH    -0.6497 ****
6817 HO1    23.262713  -22.901668  -10.928901 H    1085 MOH     0.4215 ****
6818 HC1    19.191239  -18.877564  -20.745664 H    1086 MOH     0.0372 ****
6819 C1     19.784177  -19.216002  -21.594899 C    1086 MOH     0.1166 ****
6820 HC2    20.151372  -20.211720  -21.346705 H    1086 MOH     0.0372 ****
6821 HC3    20.631150  -18.546067  -21.746927 H    1086 MOH     0.0372 ****
6822 O1     18.979928  -19.267033  -22.765161 O    1086 MOH    -0.6497 ****
6823 HO1    19.386960  -19.917373  -23.342867 H    1086 MOH     0.4215 ****
6824 HC1    14.947714  -18.556681  -15.083153 H    1087 MOH     0.0372 ****
6825 C1     15.129002  -19.594857  -14.803846 C    1087 MOH     0.1166 ****
6826 HC2    14.469668  -20.232132  -15.392866 H    1087 MOH     0.0372 ****
6827 HC3    14.904413  -19.749583  -13.748135 H    1087 MOH     0.0372 ****
6828 O1     16.459217  -19.990449  -15.044969 O    1087 MOH    -0.6497 ****
6829 HO1    16.638773  -19.882263  -15.981886 H    1087 MOH     0.4215 ****
6830 HC1    18.836168  -24.344825  -11.424583 H    1088 MOH     0.0372 ****
6831 C1     19.289965  -23.465459  -10.967792 C    1088 MOH     0.1166 ****
6832 HC2    20.127123  -23.148658  -11.590045 H    1088 MOH     0.0372 ****
6833 HC3    19.593652  -23.714490   -9.950972 H    1088 MOH     0.0372 ****
6834 O1     18.339647  -22.467700  -11.003147 O    1088 MOH    -0.6497 ****
6835 HO1    18.011712  -22.412178  -11.904001 H    1088 MOH     0.4215 ****
6836 HC1    10.668971  -12.872232  -13.753792 H    1089 MOH     0.0372 ****
6837 C1      9.761377  -12.935919  -13.154166 C    1089 MOH     0.1166 ****
6838 HC2     9.150540  -13.782626  -13.466707 H    1089 MOH     0.0372 ****
6839 HC3     9.212316  -12.003888  -13.286395 H    1089 MOH     0.0372 ****
6840 O1     10.133190  -13.119222  -11.829755 O    1089 MOH    -0.6497 ****
6841 HO1    10.660311  -13.921838  -11.831169 H    1089 MOH     0.4215 ****
6842 HC1    26.199116  -21.025767   -6.047742 H    1090 MOH     0.0372 ****
6843 C1     25.946237  -20.161097   -5.433974 C    1090 MOH     0.1166 ****
6844 HC2    26.753950  -19.977793   -4.726160 H    1090 MOH     0.0372 ****
6845 HC3    25.028250  -20.393798   -4.895158 H    1090 MOH     0.0372 ****
6846 O1     25.753979  -19.052703   -6.290280 O    1090 MOH    -0.6497 ****
6847 HO1    25.068664  -19.323780   -6.905463 H    1090 MOH     0.4215 ****
6848 HC1    19.799188  -25.098043   -2.163605 H    1091 MOH     0.0372 ****
6849 C1     18.907759  -24.471382   -2.195425 C    1091 MOH     0.1166 ****
6850 HC2    18.019217  -25.102126   -2.235730 H    1091 MOH     0.0372 ****
6851 HC3    18.916997  -23.853294   -3.093450 H    1091 MOH     0.0372 ****
6852 O1     18.918152  -23.623859   -1.073953 O    1091 MOH    -0.6497 ****
6853 HO1    19.673903  -23.043738   -1.190626 H    1091 MOH     0.4215 ****
6854 HC1    21.456184  -23.836148   -3.577111 H    1092 MOH     0.0372 ****
6855 C1     21.680773  -22.770212   -3.526907 C    1092 MOH     0.1166 ****
6856 HC2    21.321661  -22.222343   -4.398062 H    1092 MOH     0.0372 ****
6857 HC3    22.766769  -22.723671   -3.599032 H    1092 MOH     0.0372 ****
6858 O1     21.319929  -22.172128   -2.260479 O    1092 MOH    -0.6497 ****
6859 HO1    21.247760  -21.223359   -2.386344 H    1092 MOH     0.4215 ****
6860 HC1    22.855681  -17.392765  -13.350034 H    1093 MOH     0.0372 ****
6861 C1     22.363201  -16.956348  -14.219069 C    1093 MOH     0.1166 ****
6862 HC2    21.420965  -16.468899  -13.968753 H    1093 MOH     0.0372 ****
6863 HC3    22.110899  -17.790807  -14.873849 H    1093 MOH     0.0372 ****
6864 O1     23.200936  -16.031257  -14.919104 O    1093 MOH    -0.6497 ****
6865 HO1    22.659959  -15.331520  -15.291042 H    1093 MOH     0.4215 ****
6866 HC1    25.510915  -18.029633   -9.600954 H    1094 MOH     0.0372 ****
6867 C1     25.171433  -18.775502  -10.320082 C    1094 MOH     0.1166 ****
6868 HC2    24.665096  -19.612819   -9.838542 H    1094 MOH     0.0372 ****
6869 HC3    26.058243  -19.172320  -10.815056 H    1094 MOH     0.0372 ****
6870 O1     24.330233  -18.154965  -11.274676 O    1094 MOH    -0.6497 ****
6871 HO1    24.859663  -17.469924  -11.690455 H    1094 MOH     0.4215 ****
6872 HC1    16.217307  -25.265834  -18.581917 H    1095 MOH     0.0372 ****
6873 C1     15.586841  -25.579368  -17.750360 C    1095 MOH     0.1166 ****
6874 HC2    14.610542  -25.892086  -18.120884 H    1095 MOH     0.0372 ****
6875 HC3    15.416523  -24.752257  -17.060224 H    1095 MOH     0.0372 ****
6876 O1     16.189017  -26.633465  -17.054567 O    1095 MOH    -0.6497 ****
6877 HO1    15.538343  -26.987825  -16.445041 H    1095 MOH     0.4215 ****
6878 HC1    18.879469  -20.533419  -15.438121 H    1096 MOH     0.0372 ****
6879 C1     19.535917  -20.257852  -14.612927 C    1096 MOH     0.1166 ****
6880 HC2    18.989166  -20.293778  -13.669647 H    1096 MOH     0.0372 ****
6881 HC3    19.882327  -19.235190  -14.763541 H    1096 MOH     0.0372 ****
6882 O1     20.654821  -21.129870  -14.547873 O    1096 MOH    -0.6497 ****
6883 HO1    21.259885  -20.803272  -13.877536 H    1096 MOH     0.4215 ****
6884 HC1    22.655917  -15.818560   -7.670553 H    1097 MOH     0.0372 ****
6885 C1     22.344148  -16.237423   -6.713130 C    1097 MOH     0.1166 ****
6886 HC2    21.817028  -15.491145   -6.120575 H    1097 MOH     0.0372 ****
6887 HC3    23.236732  -16.570961   -6.184921 H    1097 MOH     0.0372 ****
6888 O1     21.529507  -17.351532   -6.940111 O    1097 MOH    -0.6497 ****
6889 HO1    20.843615  -17.110257   -7.565901 H    1097 MOH     0.4215 ****
6890 HC1    15.335693  -10.424375  -15.390037 H    1098 MOH     0.0372 ****
6891 C1     14.428099  -10.044704  -15.859556 C    1098 MOH     0.1166 ****
6892 HC2    14.558580  -10.064709  -16.942137 H    1098 MOH     0.0372 ****
6893 HC3    14.284916   -9.013877  -15.537823 H    1098 MOH     0.0372 ****
6894 O1     13.287832  -10.837931  -15.485497 O    1098 MOH    -0.6497 ****
6895 HO1    12.514760  -10.332928  -15.747834 H    1098 MOH     0.4215 ****
6896 HC1    17.493251  -18.894302   -8.878291 H    1099 MOH     0.0372 ****
6897 C1     18.075220  -18.651803   -9.767831 C    1099 MOH     0.1166 ****
6898 HC2    18.038847  -19.473607  -10.482716 H    1099 MOH     0.0372 ****
6899 HC3    19.102327  -18.508508   -9.430541 H    1099 MOH     0.0372 ****
6900 O1     17.609299  -17.407462  -10.299576 O    1099 MOH    -0.6497 ****
6901 HO1    18.024991  -16.730178   -9.761467 H    1099 MOH     0.4215 ****
6902 HC1    14.987551  -23.460560  -11.206794 H    1100 MOH     0.0372 ****
6903 C1     15.150364  -23.684688  -10.152497 C    1100 MOH     0.1166 ****
6904 HC2    15.717899  -24.611412  -10.060574 H    1100 MOH     0.0372 ****
6905 HC3    14.166559  -23.802263   -9.698535 H    1100 MOH     0.0372 ****
6906 O1     15.843184  -22.608137   -9.560649 O    1100 MOH    -0.6497 ****
6907 HO1    16.681497  -22.517506  -10.018854 H    1100 MOH     0.4215 ****
6908 HC1    14.709846  -23.565480  -20.542724 H    1101 MOH     0.0372 ****
6909 C1     14.576478  -24.588141  -20.895571 C    1101 MOH     0.1166 ****
6910 HC2    13.577662  -24.665709  -21.324077 H    1101 MOH     0.0372 ****
6911 HC3    14.649801  -25.305025  -20.078155 H    1101 MOH     0.0372 ****
6912 O1     15.496774  -24.865342  -21.907441 O    1101 MOH    -0.6497 ****
6913 HO1    15.612822  -25.813295  -21.999364 H    1101 MOH     0.4215 ****
6914 HC1    17.845435  -16.284779  -21.232861 H    1102 MOH     0.0372 ****
6915 C1     16.997885  -16.949408  -21.063155 C    1102 MOH     0.1166 ****
6916 HC2    16.132437  -16.305600  -20.906885 H    1102 MOH     0.0372 ****
6917 HC3    17.230557  -17.551166  -20.184928 H    1102 MOH     0.0372 ****
6918 O1     16.864517  -17.651187  -22.278672 O    1102 MOH    -0.6497 ****
6919 HO1    17.710335  -18.056985  -22.483733 H    1102 MOH     0.4215 ****
6920 HC1    19.262830  -20.902476   -6.651612 H    1103 MOH     0.0372 ****
6921 C1     19.326338  -21.825525   -7.227904 C    1103 MOH     0.1166 ****
6922 HC2    20.358063  -22.029649   -7.513575 H    1103 MOH     0.0372 ****
6923 HC3    18.709151  -21.713665   -8.118858 H    1103 MOH     0.0372 ****
6924 O1     18.808455  -22.878806   -6.462814 O    1103 MOH    -0.6497 ****
6925 HO1    19.058448  -23.703467   -6.887078 H    1103 MOH     0.4215 ****
6926 HC1     7.211798  -21.594865  -15.134065 H    1104 MOH     0.0372 ****
6927 C1      7.045521  -20.524438  -15.015271 C    1104 MOH     0.1166 ****
6928 HC2     7.398859  -20.203555  -14.035221 H    1104 MOH     0.0372 ****
6929 HC3     5.978578  -20.311332  -15.087396 H    1104 MOH     0.0372 ****
6930 O1      7.732568  -19.810003  -16.025019 O    1104 MOH    -0.6497 ****
6931 HO1     7.641924  -20.339910  -16.819807 H    1104 MOH     0.4215 ****
6932 HC1    13.874997  -15.278856  -17.982998 H    1105 MOH     0.0372 ****
6933 C1     14.746219  -15.934094  -18.002090 C    1105 MOH     0.1166 ****
6934 HC2    14.745642  -16.505642  -18.929814 H    1105 MOH     0.0372 ****
6935 HC3    14.718506  -16.643221  -17.174068 H    1105 MOH     0.0372 ****
6936 O1     15.924591  -15.149441  -17.928551 O    1105 MOH    -0.6497 ****
6937 HO1    15.895146  -14.638722  -17.116085 H    1105 MOH     0.4215 ****
6938 HC1     9.689785  -22.043938  -15.457920 H    1106 MOH     0.0372 ****
6939 C1      9.957098  -23.048637  -15.129115 C    1106 MOH     0.1166 ****
6940 HC2    10.901643  -23.338085  -15.589442 H    1106 MOH     0.0372 ****
6941 HC3     9.194419  -23.762255  -15.438828 H    1106 MOH     0.0372 ****
6942 O1     10.124530  -23.040880  -13.700052 O    1106 MOH    -0.6497 ****
6943 HO1     9.296032  -22.853086  -13.253161 H    1106 MOH     0.4215 ****
6944 HC1    26.824386  -22.228466   -8.095524 H    1107 MOH     0.0372 ****
6945 C1     27.682906  -21.866758   -8.661209 C    1107 MOH     0.1166 ****
6946 HC2    27.334764  -21.347466   -9.553578 H    1107 MOH     0.0372 ****
6947 HC3    28.312218  -22.707342   -8.954658 H    1107 MOH     0.0372 ****
6948 O1     28.432307  -20.977185   -7.865714 O    1107 MOH    -0.6497 ****
6949 HO1    28.599738  -21.395640   -7.017893 H    1107 MOH     0.4215 ****
6950 HC1    12.571340  -15.966346  -13.381147 H    1108 MOH     0.0372 ****
6951 C1     12.200681  -16.363163  -12.436452 C    1108 MOH     0.1166 ****
6952 HC2    13.055160  -16.486046  -11.771065 H    1108 MOH     0.0372 ****
6953 HC3    11.728986  -17.338877  -12.552418 H    1108 MOH     0.0372 ****
6954 O1     11.345626  -15.427866  -11.874303 O    1108 MOH    -0.6497 ****
6955 HO1    11.530378  -15.426233  -10.932436 H    1108 MOH     0.4215 ****
6956 HC1    11.859467  -20.641197   -7.642976 H    1109 MOH     0.0372 ****
6957 C1     11.793072  -20.901659   -6.586558 C    1109 MOH     0.1166 ****
6958 HC2    11.901037  -21.979843   -6.462814 H    1109 MOH     0.0372 ****
6959 HC3    10.809267  -20.586900   -6.237954 H    1109 MOH     0.0372 ****
6960 O1     12.776877  -20.182734   -5.863188 O    1109 MOH    -0.6497 ****
6961 HO1    13.599601  -20.291736   -6.346142 H    1109 MOH     0.4215 ****
6962 HC1    19.406013  -18.080255   -2.794344 H    1110 MOH     0.0372 ****
6963 C1     19.843644  -18.983709   -3.219315 C    1110 MOH     0.1166 ****
6964 HC2    20.087286  -18.788566   -4.263005 H    1110 MOH     0.0372 ****
6965 HC3    19.138122  -19.810003   -3.125977 H    1110 MOH     0.0372 ****
6966 O1     20.979870  -19.281322   -2.471904 O    1110 MOH    -0.6497 ****
6967 HO1    21.607449  -18.555456   -2.519987 H    1110 MOH     0.4215 ****
6968 HC1    16.186130  -25.278081   -3.427205 H    1111 MOH     0.0372 ****
6969 C1     15.775634  -26.234607   -3.104057 C    1111 MOH     0.1166 ****
6970 HC2    16.554480  -26.997215   -3.082844 H    1111 MOH     0.0372 ****
6971 HC3    14.990438  -26.513440   -3.806214 H    1111 MOH     0.0372 ****
6972 O1     15.179809  -26.090087   -1.848235 O    1111 MOH    -0.6497 ****
6973 HO1    15.800460  -25.641014   -1.269822 H    1111 MOH     0.4215 ****
6974 HC1    12.569031  -14.552582  -16.456354 H    1112 MOH     0.0372 ****
6975 C1     13.135412  -14.247620  -15.576007 C    1112 MOH     0.1166 ****
6976 HC2    13.521082  -15.141276  -15.084567 H    1112 MOH     0.0372 ****
6977 HC3    12.481274  -13.723838  -14.879506 H    1112 MOH     0.0372 ****
6978 O1     14.230068  -13.433165  -15.981179 O    1112 MOH    -0.6497 ****
6979 HO1    13.879039  -12.557881  -16.157955 H    1112 MOH     0.4215 ****
6980 HC1     4.485550  -23.957398  -17.059517 H    1113 MOH     0.0372 ****
6981 C1      5.044425  -23.325021  -16.370087 C    1113 MOH     0.1166 ****
6982 HC2     5.089458  -22.324405  -16.800716 H    1113 MOH     0.0372 ****
6983 HC3     6.057675  -23.719389  -16.289477 H    1113 MOH     0.0372 ****
6984 O1      4.379317  -23.312774  -15.081739 O    1113 MOH    -0.6497 ****
6985 HO1     4.846394  -23.930862  -14.516053 H    1113 MOH     0.4215 ****
6986 HC1    21.386902  -20.294186   -6.596457 H    1114 MOH     0.0372 ****
6987 C1     22.312394  -19.994532   -6.102897 C    1114 MOH     0.1166 ****
6988 HC2    22.756376  -20.848587   -5.590952 H    1114 MOH     0.0372 ****
6989 HC3    22.066443  -19.242538   -5.353364 H    1114 MOH     0.0372 ****
6990 O1     23.194585  -19.495244   -7.128909 O    1114 MOH    -0.6497 ****
6991 HO1    23.004060  -18.557089   -7.203862 H    1114 MOH     0.4215 ****
6992 HC1     5.986661  -27.098460  -13.727629 H    1115 MOH     0.0372 ****
6993 C1      6.574403  -26.182759  -13.666111 C    1115 MOH     0.1166 ****
6994 HC2     7.040325  -25.972103  -14.629191 H    1115 MOH     0.0372 ****
6995 HC3     7.363064  -26.331362  -12.929306 H    1115 MOH     0.0372 ****
6996 O1      5.792671  -25.058035  -13.290637 O    1115 MOH    -0.6497 ****
6997 HO1     5.392567  -25.222151  -12.433624 H    1115 MOH     0.4215 ****
6998 HC1    19.803807  -16.425217  -11.248513 H    1116 MOH     0.0372 ****
6999 C1     20.749507  -16.082288  -10.828492 C    1116 MOH     0.1166 ****
7000 HC2    20.635769  -15.107800  -10.352609 H    1116 MOH     0.0372 ****
7001 HC3    21.479278  -15.968795  -11.630351 H    1116 MOH     0.0372 ****
7002 O1     21.191180  -17.004521   -9.856220 O    1116 MOH    -0.6497 ****
7003 HO1    22.022564  -17.392765  -10.138355 H    1116 MOH     0.4215 ****
7004 HC1    19.721823  -24.490978  -16.177754 H    1117 MOH     0.0372 ****
7005 C1     20.503556  -23.817777  -16.529186 C    1117 MOH     0.1166 ****
7006 HC2    21.063008  -24.252561  -17.357208 H    1117 MOH     0.0372 ****
7007 HC3    21.188870  -23.612836  -15.707528 H    1117 MOH     0.0372 ****
7008 O1     19.929670  -22.618343  -16.974664 O    1117 MOH    -0.6497 ****
7009 HO1    20.124814  -21.974944  -16.288770 H    1117 MOH     0.4215 ****
7010 HC1    24.621680   -1.750079  -15.906225 H    1118 MOH     0.0372 ****
7011 C1     23.585336   -1.611274  -15.599341 C    1118 MOH     0.1166 ****
7012 HC2    23.021842   -1.247117  -16.457769 H    1118 MOH     0.0372 ****
7013 HC3    23.515477   -0.861322  -14.810917 H    1118 MOH     0.0372 ****
7014 O1     23.059947   -2.853982  -15.182148 O    1118 MOH    -0.6497 ****
7015 HO1    22.297268   -2.701706  -14.619998 H    1118 MOH     0.4215 ****
7016 HC1    19.120109  -12.291050  -11.814906 H    1119 MOH     0.0372 ****
7017 C1     18.319324  -12.685009  -11.189116 C    1119 MOH     0.1166 ****
7018 HC2    17.753521  -13.415366  -11.768236 H    1119 MOH     0.0372 ****
7019 HC3    17.646711  -11.908113  -10.827784 H    1119 MOH     0.0372 ****
7020 O1     18.816423  -13.425980  -10.144719 O    1119 MOH    -0.6497 ****
7021 HO1    19.360864  -12.829937   -9.625703 H    1119 MOH     0.4215 ****
7022 HC1    25.671302   -3.201402  -11.237199 H    1120 MOH     0.0372 ****
7023 C1     26.275211   -2.649858  -10.516657 C    1120 MOH     0.1166 ****
7024 HC2    27.086965   -3.285092  -10.163104 H    1120 MOH     0.0372 ****
7025 HC3    25.626846   -2.364084   -9.687928 H    1120 MOH     0.0372 ****
7026 O1     26.779815   -1.525951  -11.172145 O    1120 MOH    -0.6497 ****
7027 HO1    27.592724   -1.264263  -10.733032 H    1120 MOH     0.4215 ****
7028 HC1    23.733138   -8.522918   -6.852430 H    1121 MOH     0.0372 ****
7029 C1     22.712960   -8.815632   -6.604236 C    1121 MOH     0.1166 ****
7030 HC2    22.551879   -8.758069   -5.528726 H    1121 MOH     0.0372 ****
7031 HC3    22.504536   -9.837886   -6.921019 H    1121 MOH     0.0372 ****
7032 O1     21.826727   -7.923201   -7.205276 O    1121 MOH    -0.6497 ****
7033 HO1    22.278215   -7.546796   -7.964709 H    1121 MOH     0.4215 ****
7034 HC1    27.530370   -4.574749  -21.749049 H    1122 MOH     0.0372 ****
7035 C1     27.575981   -5.029537  -22.738998 C    1122 MOH     0.1166 ****
7036 HC2    28.493391   -5.608434  -22.847893 H    1122 MOH     0.0372 ****
7037 HC3    27.565589   -4.251824  -23.501966 H    1122 MOH     0.0372 ****
7038 O1     26.472665   -5.866038  -22.956080 O    1122 MOH    -0.6497 ****
7039 HO1    26.731895   -6.753570  -22.698693 H    1122 MOH     0.4215 ****
7040 HC1    18.332026   -5.736215  -10.648179 H    1123 MOH     0.0372 ****
7041 C1     19.372411   -5.708863  -10.974156 C    1123 MOH     0.1166 ****
7042 HC2    19.956690   -6.348588  -10.311597 H    1123 MOH     0.0372 ****
7043 HC3    19.713625   -4.675178  -10.920415 H    1123 MOH     0.0372 ****
7044 O1     19.439384   -6.191004  -12.297152 O    1123 MOH    -0.6497 ****
7045 HO1    18.844713   -6.943814  -12.340993 H    1123 MOH     0.4215 ****
7046 HC1    21.212426  -10.418415  -14.808089 H    1124 MOH     0.0372 ****
7047 C1     22.126949  -10.112229  -15.315791 C    1124 MOH     0.1166 ****
7048 HC2    22.722197   -9.457807  -14.678688 H    1124 MOH     0.0372 ****
7049 HC3    21.851553   -9.565992  -16.218059 H    1124 MOH     0.0372 ****
7050 O1     22.829007  -11.251650  -15.713892 O    1124 MOH    -0.6497 ****
7051 HO1    23.763737  -11.052833  -15.624090 H    1124 MOH     0.4215 ****
7052 HC1    18.158244  -10.756036  -19.663791 H    1125 MOH     0.0372 ****
7053 C1     18.200967  -10.514353  -18.601716 C    1125 MOH     0.1166 ****
7054 HC2    19.237888  -10.576407  -18.270790 H    1125 MOH     0.0372 ****
7055 HC3    17.603410  -11.216132  -18.019768 H    1125 MOH     0.0372 ****
7056 O1     17.767377   -9.220614  -18.332309 O    1125 MOH    -0.6497 ****
7057 HO1    16.997769   -9.029146  -18.873245 H    1125 MOH     0.4215 ****
7058 HC1    15.554971   -6.818481  -11.948549 H    1126 MOH     0.0372 ****
7059 C1     15.120226   -7.703972  -11.485394 C    1126 MOH     0.1166 ****
7060 HC2    14.707998   -8.378806  -12.235634 H    1126 MOH     0.0372 ****
7061 HC3    14.298080   -7.417790  -10.828492 H    1126 MOH     0.0372 ****
7062 O1     16.025512   -8.406567  -10.689899 O    1126 MOH    -0.6497 ****
7063 HO1    15.498968   -9.124268  -10.329274 H    1126 MOH     0.4215 ****
7064 HC1    29.144064   -1.260181  -14.179471 H    1127 MOH     0.0372 ****
7065 C1     28.478380   -0.401227  -14.094618 C    1127 MOH     0.1166 ****
7066 HC2    27.436262   -0.721293  -14.101689 H    1127 MOH     0.0372 ****
7067 HC3    28.613479    0.223393  -14.977087 H    1127 MOH     0.0372 ****
7068 O1     28.704123    0.395674  -12.891122 O    1127 MOH    -0.6497 ****
7069 HO1    28.631377   -0.171383  -12.121083 H    1127 MOH     0.4215 ****
7070 HC1    29.218542  -11.914236   -5.229620 H    1128 MOH     0.0372 ****
7071 C1     29.518187  -12.961393   -5.244469 C    1128 MOH     0.1166 ****
7072 HC2    30.152118  -13.150004   -6.111382 H    1128 MOH     0.0372 ****
7073 HC3    28.650430  -13.615407   -5.323665 H    1128 MOH     0.0372 ****
7074 O1     30.223132  -13.272479   -4.050873 O    1128 MOH    -0.6497 ****
7075 HO1    30.657299  -14.120818   -4.169667 H    1128 MOH     0.4215 ****
7076 HC1    21.467615   -8.646617  -19.277003 H    1129 MOH     0.0372 ****
7077 C1     20.927215   -7.777048  -19.650356 C    1129 MOH     0.1166 ****
7078 HC2    20.483810   -8.106505  -20.590101 H    1129 MOH     0.0372 ****
7079 HC3    21.650058   -6.974024  -19.796727 H    1129 MOH     0.0372 ****
7080 O1     19.935905   -7.438611  -18.656871 O    1129 MOH    -0.6497 ****
7081 HO1    19.300242   -8.152637  -18.574139 H    1129 MOH     0.4215 ****
7082 HC1    19.911079  -15.418640  -23.586112 H    1130 MOH     0.0372 ****
7083 C1     20.323884  -14.411083  -23.622882 C    1130 MOH     0.1166 ****
7084 HC2    20.238437  -13.940373  -22.643539 H    1130 MOH     0.0372 ****
7085 HC3    19.747111  -13.823206  -24.337059 H    1130 MOH     0.0372 ****
7086 O1     21.663337  -14.466605  -24.054217 O    1130 MOH    -0.6497 ****
7087 HO1    21.696823  -15.127151  -24.750010 H    1130 MOH     0.4215 ****
7088 HC1    26.084685    2.993766  -11.445796 H    1131 MOH     0.0372 ****
7089 C1     25.630311    3.291788  -12.390490 C    1131 MOH     0.1166 ****
7090 HC2    24.549511    3.157066  -12.342407 H    1131 MOH     0.0372 ****
7091 HC3    26.052931    2.667168  -13.178207 H    1131 MOH     0.0372 ****
7092 O1     25.912058    4.649213  -12.649999 O    1131 MOH    -0.6497 ****
7093 HO1    25.642435    4.843539  -13.550853 H    1131 MOH     0.4215 ****
7094 HC1    27.125648    5.907434   -8.322505 H    1132 MOH     0.0372 ****
7095 C1     26.783856    5.237907   -9.111636 C    1132 MOH     0.1166 ****
7096 HC2    26.285603    4.361806   -8.695858 H    1132 MOH     0.0372 ****
7097 HC3    27.656233    4.919882   -9.682272 H    1132 MOH     0.0372 ****
7098 O1     26.002702    5.967855  -10.033704 O    1132 MOH    -0.6497 ****
7099 HO1    26.029837    5.480815  -10.860311 H    1132 MOH     0.4215 ****
7100 HC1    29.892310  -10.798494  -12.653534 H    1133 MOH     0.0372 ****
7101 C1     29.752014  -10.952812  -13.722680 C    1133 MOH     0.1166 ****
7102 HC2    29.555715   -9.998327  -14.211997 H    1133 MOH     0.0372 ****
7103 HC3    28.917743  -11.631729  -13.898749 H    1133 MOH     0.0372 ****
7104 O1     30.927499  -11.507213  -14.274223 O    1133 MOH    -0.6497 ****
7105 HO1    31.574132  -11.608050  -13.572066 H    1133 MOH     0.4215 ****
7106 HC1    27.348505  -11.004659  -20.022294 H    1134 MOH     0.0372 ****
7107 C1     27.187424  -12.017523  -19.653891 C    1134 MOH     0.1166 ****
7108 HC2    26.436292  -11.972616  -18.866174 H    1134 MOH     0.0372 ****
7109 HC3    28.112339  -12.418015  -19.238820 H    1134 MOH     0.0372 ****
7110 O1     26.735936  -12.864230  -20.710309 O    1134 MOH    -0.6497 ****
7111 HO1    27.140659  -13.722368  -20.560402 H    1134 MOH     0.4215 ****
7112 HC1    31.149779    2.039282  -20.235133 H    1135 MOH     0.0372 ****
7113 C1     30.568965    2.420586  -19.395090 C    1135 MOH     0.1166 ****
7114 HC2    30.866300    3.427734  -19.103055 H    1135 MOH     0.0372 ****
7115 HC3    30.776811    1.765347  -18.548683 H    1135 MOH     0.0372 ****
7116 O1     29.189675    2.376903  -19.680054 O    1135 MOH    -0.6497 ****
7117 HO1    28.784375    1.702069  -19.130632 H    1135 MOH     0.4215 ****
7118 HC1    19.727481   -8.317569   -9.209217 H    1136 MOH     0.0372 ****
7119 C1     19.336038   -9.086709   -9.873897 C    1136 MOH     0.1166 ****
7120 HC2    19.835446   -9.052824  -10.841927 H    1136 MOH     0.0372 ****
7121 HC3    18.264476   -8.924226   -9.998348 H    1136 MOH     0.0372 ****
7122 O1     19.476911  -10.353503   -9.289120 O    1136 MOH    -0.6497 ****
7123 HO1    19.030620  -10.353912   -8.439885 H    1136 MOH     0.4215 ****
7124 HC1    30.082259   -6.958511  -14.458071 H    1137 MOH     0.0372 ****
7125 C1     29.018779   -6.757652  -14.589592 C    1137 MOH     0.1166 ****
7126 HC2    28.436810   -7.678661  -14.562722 H    1137 MOH     0.0372 ****
7127 HC3    28.853657   -6.286942  -15.559036 H    1137 MOH     0.0372 ****
7128 O1     28.568446   -5.867263  -13.610250 O    1137 MOH    -0.6497 ****
7129 HO1    28.678720   -4.972791  -13.940468 H    1137 MOH     0.4215 ****
7130 HC1    29.562643  -15.286776  -12.051079 H    1138 MOH     0.0372 ****
7131 C1     29.376737  -14.700939  -12.951226 C    1138 MOH     0.1166 ****
7132 HC2    29.394634  -15.324743  -13.845009 H    1138 MOH     0.0372 ****
7133 HC3    30.124405  -13.915470  -13.060120 H    1138 MOH     0.0372 ****
7134 O1     28.134279  -14.112654  -12.821825 O    1138 MOH    -0.6497 ****
7135 HO1    27.835789  -14.002018  -13.727629 H    1138 MOH     0.4215 ****
7136 HC1    28.992799   -3.358985  -19.718238 H    1139 MOH     0.0372 ****
7137 C1     28.755508   -3.645576  -18.692933 C    1139 MOH     0.1166 ****
7138 HC2    29.517610   -4.308163  -18.283518 H    1139 MOH     0.0372 ****
7139 HC3    27.802302   -4.174257  -18.712025 H    1139 MOH     0.0372 ****
7140 O1     28.653894   -2.519219  -17.855012 O    1139 MOH    -0.6497 ****
7141 HO1    29.427543   -1.962776  -17.974513 H    1139 MOH     0.4215 ****
7142 HC1    26.683975  -18.341289  -13.366298 H    1140 MOH     0.0372 ****
7143 C1     26.276943  -17.340673  -13.511255 C    1140 MOH     0.1166 ****
7144 HC2    25.231362  -17.386397  -13.816725 H    1140 MOH     0.0372 ****
7145 HC3    26.833509  -16.883026  -14.327963 H    1140 MOH     0.0372 ****
7146 O1     26.431673  -16.516828  -12.354428 O    1140 MOH    -0.6497 ****
7147 HO1    26.714574  -15.636644  -12.614643 H    1140 MOH     0.4215 ****
7148 HC1    26.089881  -13.935882  -11.143861 H    1141 MOH     0.0372 ****
7149 C1     26.178216  -12.949962  -10.687777 C    1141 MOH     0.1166 ****
7150 HC2    25.577194  -12.918119   -9.779852 H    1141 MOH     0.0372 ****
7151 HC3    25.826032  -12.214707  -11.411147 H    1141 MOH     0.0372 ****
7152 O1     27.518246  -12.746247  -10.380186 O    1141 MOH    -0.6497 ****
7153 HO1    28.003220  -13.212874  -11.063958 H    1141 MOH     0.4215 ****
7154 HC1    30.385945    0.164197   -6.345435 H    1142 MOH     0.0372 ****
7155 C1     30.343221    1.038257   -6.995266 C    1142 MOH     0.1166 ****
7156 HC2    31.144006    1.738403   -6.756971 H    1142 MOH     0.0372 ****
7157 HC3    29.403872    1.554283   -6.800104 H    1142 MOH     0.0372 ****
7158 O1     30.343798    0.683897   -8.386852 O    1142 MOH    -0.6497 ****
7159 HO1    30.452917    1.476307   -8.917889 H    1142 MOH     0.4215 ****
7160 HC1    28.053450  -18.773216  -10.329981 H    1143 MOH     0.0372 ****
7161 C1     29.129631  -18.765051  -10.499687 C    1143 MOH     0.1166 ****
7162 HC2    29.549942  -17.904872   -9.979963 H    1143 MOH     0.0372 ****
7163 HC3    29.333435  -18.704630  -11.568832 H    1143 MOH     0.0372 ****
7164 O1     29.723147  -19.909779   -9.999055 O    1143 MOH    -0.6497 ****
7165 HO1    29.261266  -20.171058   -9.200024 H    1143 MOH     0.4215 ****
7166 HC1    24.699622   -4.105263  -17.731268 H    1144 MOH     0.0372 ****
7167 C1     24.117076   -4.978098  -17.435697 C    1144 MOH     0.1166 ****
7168 HC2    24.453093   -5.892983  -17.922894 H    1144 MOH     0.0372 ****
7169 HC3    23.096898   -4.798061  -17.772987 H    1144 MOH     0.0372 ****
7170 O1     24.110147   -5.125067  -16.032797 O    1144 MOH    -0.6497 ****
7171 HO1    23.923663   -4.263255  -15.651667 H    1144 MOH     0.4215 ****
7172 HC1    23.868815   -7.119769  -13.460343 H    1145 MOH     0.0372 ****
7173 C1     24.900540   -7.403501  -13.666111 C    1145 MOH     0.1166 ****
7174 HC2    25.171317   -8.229387  -13.009209 H    1145 MOH     0.0372 ****
7175 HC3    25.548904   -6.552712  -13.455393 H    1145 MOH     0.0372 ****
7176 O1     25.038527   -7.722751  -15.027999 O    1145 MOH    -0.6497 ****
7177 HO1    24.741769   -6.929933  -15.480547 H    1145 MOH     0.4215 ****
7178 HC1    29.362880   -7.847267  -19.146896 H    1146 MOH     0.0372 ****
7179 C1     29.377314   -7.139773  -19.976332 C    1146 MOH     0.1166 ****
7180 HC2    28.386581   -6.708663  -20.117753 H    1146 MOH     0.0372 ****
7181 HC3    29.716219   -7.632937  -20.887085 H    1146 MOH     0.0372 ****
7182 O1     30.254309   -6.088125  -19.669448 O    1146 MOH    -0.6497 ****
7183 HO1    30.450608   -6.081185  -18.729703 H    1146 MOH     0.4215 ****
7184 HC1    25.219237  -15.594595   -5.268511 H    1147 MOH     0.0372 ****
7185 C1     26.211702  -15.573774   -5.718938 C    1147 MOH     0.1166 ****
7186 HC2    26.734782  -14.662564   -5.429024 H    1147 MOH     0.0372 ****
7187 HC3    26.151658  -15.629296   -6.805054 H    1147 MOH     0.0372 ****
7188 O1     26.946669  -16.638486   -5.270632 O    1147 MOH    -0.6497 ****
7189 HO1    26.499800  -17.434570   -5.566203 H    1147 MOH     0.4215 ****
7190 HC1    23.159251   -3.365109  -12.263211 H    1148 MOH     0.0372 ****
7191 C1     22.919651   -3.997894  -11.409026 C    1148 MOH     0.1166 ****
7192 HC2    21.874070   -3.873378  -11.128305 H    1148 MOH     0.0372 ****
7193 HC3    23.551850   -3.690483  -10.575347 H    1148 MOH     0.0372 ****
7194 O1     23.221605   -5.347971  -11.725103 O    1148 MOH    -0.6497 ****
7195 HO1    22.759148   -5.621089  -12.520598 H    1148 MOH     0.4215 ****
7196 HC1    20.565794  -11.303497  -21.362968 H    1149 MOH     0.0372 ****
7197 C1     21.353877  -11.269204  -22.115330 C    1149 MOH     0.1166 ****
7198 HC2    20.933566  -10.877694  -23.042347 H    1149 MOH     0.0372 ****
7199 HC3    21.751672  -12.266963  -22.302006 H    1149 MOH     0.0372 ****
7200 O1     22.360199  -10.369017  -21.765312 O    1149 MOH    -0.6497 ****
7201 HO1    23.187542  -10.834012  -21.908855 H    1149 MOH     0.4215 ****
7202 HC1    23.920776   -8.763376  -10.521607 H    1150 MOH     0.0372 ****
7203 C1     22.910991   -8.364109  -10.429683 C    1150 MOH     0.1166 ****
7204 HC2    22.298422   -9.105488   -9.916324 H    1150 MOH     0.0372 ****
7205 HC3    22.509732   -8.172233  -11.425290 H    1150 MOH     0.0372 ****
7206 O1     22.979118   -7.175290   -9.667422 O    1150 MOH    -0.6497 ****
7207 HO1    23.313404   -6.482085  -10.241593 H    1150 MOH     0.4215 ****
7208 HC1    19.664550   -1.527175  -12.097748 H    1151 MOH     0.0372 ****
7209 C1     20.527112   -1.064222  -12.577167 C    1151 MOH     0.1166 ****
7210 HC2    21.314040   -0.949504  -11.831169 H    1151 MOH     0.0372 ****
7211 HC3    20.210146   -0.072178  -12.899607 H    1151 MOH     0.0372 ****
7212 O1     20.909895   -1.851733  -13.736115 O    1151 MOH    -0.6497 ****
7213 HO1    20.215920   -1.805601  -14.397260 H    1151 MOH     0.4215 ****
7214 HC1    26.350844   -6.089758   -5.837025 H    1152 MOH     0.0372 ****
7215 C1     26.958794   -5.218965   -6.085219 C    1152 MOH     0.1166 ****
7216 HC2    28.008416   -5.488408   -6.199771 H    1152 MOH     0.0372 ****
7217 HC3    26.902213   -4.496773   -5.269925 H    1152 MOH     0.0372 ****
7218 O1     26.563886   -4.656807   -7.295079 O    1152 MOH    -0.6497 ****
7219 HO1    26.845633   -5.255299   -7.990872 H    1152 MOH     0.4215 ****
7220 HC1    25.410340  -13.833820  -15.635403 H    1153 MOH     0.0372 ****
7221 C1     26.267128  -14.091833  -16.259072 C    1153 MOH     0.1166 ****
7222 HC2    26.453035  -13.298607  -16.982442 H    1153 MOH     0.0372 ****
7223 HC3    26.021177  -14.995695  -16.816272 H    1153 MOH     0.0372 ****
7224 O1     27.430489  -14.282485  -15.457920 O    1153 MOH    -0.6497 ****
7225 HO1    28.126773  -14.630312  -16.019362 H    1153 MOH     0.4215 ****
7226 HC1    26.545988   -2.154245  -15.083153 H    1154 MOH     0.0372 ****
7227 C1     26.727276   -3.192420  -14.803846 C    1154 MOH     0.1166 ****
7228 HC2    26.067942   -3.829696  -15.392866 H    1154 MOH     0.0372 ****
7229 HC3    26.502687   -3.347146  -13.748135 H    1154 MOH     0.0372 ****
7230 O1     28.057491   -3.588013  -15.044969 O    1154 MOH    -0.6497 ****
7231 HO1    28.237047   -3.479827  -15.981886 H    1154 MOH     0.4215 ****
7232 HC1    30.434442   -7.942389  -11.424583 H    1155 MOH     0.0372 ****
7233 C1     30.888240   -7.063022  -10.967792 C    1155 MOH     0.1166 ****
7234 HC2    31.725397   -6.746221  -11.590045 H    1155 MOH     0.0372 ****
7235 HC3    31.191926   -7.312054   -9.950972 H    1155 MOH     0.0372 ****
7236 O1     29.937921   -6.065263  -11.003147 O    1155 MOH    -0.6497 ****
7237 HO1    29.609986   -6.009742  -11.904001 H    1155 MOH     0.4215 ****
7238 HC1    22.267245    3.530205  -13.753792 H    1156 MOH     0.0372 ****
7239 C1     21.359651    3.466518  -13.154166 C    1156 MOH     0.1166 ****
7240 HC2    20.748814    2.619811  -13.466707 H    1156 MOH     0.0372 ****
7241 HC3    20.810591    4.398549  -13.286395 H    1156 MOH     0.0372 ****
7242 O1     21.731464    3.283214  -11.829755 O    1156 MOH    -0.6497 ****
7243 HO1    22.258585    2.480598  -11.831169 H    1156 MOH     0.4215 ****
7244 HC1    31.397462   -8.695607   -2.163605 H    1157 MOH     0.0372 ****
7245 C1     30.506034   -8.068946   -2.195425 C    1157 MOH     0.1166 ****
7246 HC2    29.617491   -8.699689   -2.235730 H    1157 MOH     0.0372 ****
7247 HC3    30.515271   -7.450858   -3.093450 H    1157 MOH     0.0372 ****
7248 O1     30.516426   -7.221422   -1.073953 O    1157 MOH    -0.6497 ****
7249 HO1    31.272177   -6.641302   -1.190626 H    1157 MOH     0.4215 ****
7250 HC1    27.296543   -9.527617   -7.127495 H    1158 MOH     0.0372 ****
7251 C1     27.641799  -10.370650   -7.725000 C    1158 MOH     0.1166 ****
7252 HC2    28.381962  -10.902597   -7.126080 H    1158 MOH     0.0372 ****
7253 HC3    28.083472   -9.984855   -8.643532 H    1158 MOH     0.0372 ****
7254 O1     26.589289  -11.288392   -8.058754 O    1158 MOH    -0.6497 ****
7255 HO1    26.868150  -11.801560   -8.820308 H    1158 MOH     0.4215 ****
7256 HC1    27.815581   -8.863397  -18.581917 H    1159 MOH     0.0372 ****
7257 C1     27.185115   -9.176932  -17.750360 C    1159 MOH     0.1166 ****
7258 HC2    26.208816   -9.489650  -18.120884 H    1159 MOH     0.0372 ****
7259 HC3    27.014797   -8.349821  -17.060224 H    1159 MOH     0.0372 ****
7260 O1     27.787291  -10.231029  -17.054567 O    1159 MOH    -0.6497 ****
7261 HO1    27.136618  -10.585388  -16.445041 H    1159 MOH     0.4215 ****
7262 HC1    26.933968    5.978061  -15.390037 H    1160 MOH     0.0372 ****
7263 C1     26.026373    6.357732  -15.859556 C    1160 MOH     0.1166 ****
7264 HC2    26.156854    6.337728  -16.942137 H    1160 MOH     0.0372 ****
7265 HC3    25.883190    7.388559  -15.537823 H    1160 MOH     0.0372 ****
7266 O1     24.886106    5.564506  -15.485497 O    1160 MOH    -0.6497 ****
7267 HO1    24.113034    6.069509  -15.747834 H    1160 MOH     0.4215 ****
7268 HC1    19.815816  -14.198794  -15.385088 H    1161 MOH     0.0372 ****
7269 C1     20.459562  -13.414549  -15.781775 C    1161 MOH     0.1166 ****
7270 HC2    20.493625  -12.613158  -15.044262 H    1161 MOH     0.0372 ****
7271 HC3    20.060613  -12.974457  -16.696771 H    1161 MOH     0.0372 ****
7272 O1     21.771301  -13.879136  -16.012291 O    1161 MOH    -0.6497 ****
7273 HO1    22.213552  -13.092033  -16.337560 H    1161 MOH     0.4215 ****
7274 HC1    29.091525   -2.491866   -8.878291 H    1162 MOH     0.0372 ****
7275 C1     29.673495   -2.249366   -9.767831 C    1162 MOH     0.1166 ****
7276 HC2    29.637121   -3.071170  -10.482716 H    1162 MOH     0.0372 ****
7277 HC3    30.700601   -2.106071   -9.430541 H    1162 MOH     0.0372 ****
7278 O1     29.207573   -1.005026  -10.299576 O    1162 MOH    -0.6497 ****
7279 HO1    29.623265   -0.327742   -9.761467 H    1162 MOH     0.4215 ****
7280 HC1    26.585825   -7.058123  -11.206794 H    1163 MOH     0.0372 ****
7281 C1     26.748638   -7.282251  -10.152497 C    1163 MOH     0.1166 ****
7282 HC2    27.316173   -8.208975  -10.060574 H    1163 MOH     0.0372 ****
7283 HC3    25.764833   -7.399827   -9.698535 H    1163 MOH     0.0372 ****
7284 O1     27.441458   -6.205701   -9.560649 O    1163 MOH    -0.6497 ****
7285 HO1    28.279771   -6.115070  -10.018854 H    1163 MOH     0.4215 ****
7286 HC1    24.521221  -13.124284   -6.447258 H    1164 MOH     0.0372 ****
7287 C1     24.128045  -12.689500   -5.528726 C    1164 MOH     0.1166 ****
7288 HC2    23.943870  -11.624788   -5.670148 H    1164 MOH     0.0372 ****
7289 HC3    24.827216  -12.833612   -4.704947 H    1164 MOH     0.0372 ****
7290 O1     22.963530  -13.350454   -5.199922 O    1164 MOH    -0.6497 ****
7291 HO1    22.539177  -12.900973   -4.465238 H    1164 MOH     0.4215 ****
7292 HC1    26.308120   -7.163043  -20.542724 H    1165 MOH     0.0372 ****
7293 C1     26.174752   -8.185705  -20.895571 C    1165 MOH     0.1166 ****
7294 HC2    25.175936   -8.263272  -21.324077 H    1165 MOH     0.0372 ****
7295 HC3    26.248075   -8.902589  -20.078155 H    1165 MOH     0.0372 ****
7296 O1     27.095048   -8.462906  -21.907441 O    1165 MOH    -0.6497 ****
7297 HO1    27.211096   -9.410858  -21.999364 H    1165 MOH     0.4215 ****
7298 HC1    29.443709    0.117657  -21.232861 H    1166 MOH     0.0372 ****
7299 C1     28.596159   -0.546971  -21.063155 C    1166 MOH     0.1166 ****
7300 HC2    27.730711    0.096836  -20.906885 H    1166 MOH     0.0372 ****
7301 HC3    28.828831   -1.148729  -20.184928 H    1166 MOH     0.0372 ****
7302 O1     28.462791   -1.248750  -22.278672 O    1166 MOH    -0.6497 ****
7303 HO1    29.308609   -1.654549  -22.483733 H    1166 MOH     0.4215 ****
7304 HC1    27.332339  -18.688300  -15.822787 H    1167 MOH     0.0372 ****
7305 C1     28.367528  -18.384155  -15.979057 C    1167 MOH     0.1166 ****
7306 HC2    28.956426  -19.286792  -16.146642 H    1167 MOH     0.0372 ****
7307 HC3    28.740497  -17.827305  -15.120630 H    1167 MOH     0.0372 ****
7308 O1     28.365219  -17.652575  -17.155683 O    1167 MOH    -0.6497 ****
7309 HO1    29.002614  -16.943447  -17.046081 H    1167 MOH     0.4215 ****
7310 HC1    18.810072   -5.192428  -15.134065 H    1168 MOH     0.0372 ****
7311 C1     18.643795   -4.122001  -15.015271 C    1168 MOH     0.1166 ****
7312 HC2    18.997133   -3.801118  -14.035221 H    1168 MOH     0.0372 ****
7313 HC3    17.576852   -3.908896  -15.087396 H    1168 MOH     0.0372 ****
7314 O1     19.330842   -3.407567  -16.025019 O    1168 MOH    -0.6497 ****
7315 HO1    19.240198   -3.937473  -16.819807 H    1168 MOH     0.4215 ****
7316 HC1    25.473271    1.123581  -17.982998 H    1169 MOH     0.0372 ****
7317 C1     26.344493    0.468342  -18.002090 C    1169 MOH     0.1166 ****
7318 HC2    26.343916   -0.103205  -18.929814 H    1169 MOH     0.0372 ****
7319 HC3    26.316780   -0.240785  -17.174068 H    1169 MOH     0.0372 ****
7320 O1     27.522865    1.252996  -17.928551 O    1169 MOH    -0.6497 ****
7321 HO1    27.493420    1.763714  -17.116085 H    1169 MOH     0.4215 ****
7322 HC1    21.288059   -5.641502  -15.457920 H    1170 MOH     0.0372 ****
7323 C1     21.555372   -6.646201  -15.129115 C    1170 MOH     0.1166 ****
7324 HC2    22.499917   -6.935649  -15.589442 H    1170 MOH     0.0372 ****
7325 HC3    20.792693   -7.359819  -15.438828 H    1170 MOH     0.0372 ****
7326 O1     21.722804   -6.638444  -13.700052 O    1170 MOH    -0.6497 ****
7327 HO1    20.894306   -6.450650  -13.253161 H    1170 MOH     0.4215 ****
7328 HC1    24.169614    0.436091  -13.381147 H    1171 MOH     0.0372 ****
7329 C1     23.798956    0.039273  -12.436452 C    1171 MOH     0.1166 ****
7330 HC2    24.653434   -0.083609  -11.771065 H    1171 MOH     0.0372 ****
7331 HC3    23.327260   -0.936440  -12.552418 H    1171 MOH     0.0372 ****
7332 O1     22.943900    0.974570  -11.874303 O    1171 MOH    -0.6497 ****
7333 HO1    23.128652    0.976203  -10.932436 H    1171 MOH     0.4215 ****
7334 HC1    24.053567  -12.618465   -1.229517 H    1172 MOH     0.0372 ****
7335 C1     24.947882  -13.061006   -0.789697 C    1172 MOH     0.1166 ****
7336 HC2    25.013700  -12.787888    0.263185 H    1172 MOH     0.0372 ****
7337 HC3    25.838157  -12.691133   -1.298813 H    1172 MOH     0.0372 ****
7338 O1     24.896498  -14.473545   -0.905662 O    1172 MOH    -0.6497 ****
7339 HO1    25.801784  -14.781772   -0.817274 H    1172 MOH     0.4215 ****
7340 HC1    23.457742   -4.238760   -7.642976 H    1173 MOH     0.0372 ****
7341 C1     23.391346   -4.499223   -6.586558 C    1173 MOH     0.1166 ****
7342 HC2    23.499311   -5.577407   -6.462814 H    1173 MOH     0.0372 ****
7343 HC3    22.407541   -4.184463   -6.237954 H    1173 MOH     0.0372 ****
7344 O1     24.375151   -3.780298   -5.863188 O    1173 MOH    -0.6497 ****
7345 HO1    25.197875   -3.889300   -6.346142 H    1173 MOH     0.4215 ****
7346 HC1    27.784404   -8.875644   -3.427205 H    1174 MOH     0.0372 ****
7347 C1     27.373908   -9.832170   -3.104057 C    1174 MOH     0.1166 ****
7348 HC2    28.152754  -10.594778   -3.082844 H    1174 MOH     0.0372 ****
7349 HC3    26.588712  -10.111004   -3.806214 H    1174 MOH     0.0372 ****
7350 O1     26.778083   -9.687650   -1.848235 O    1174 MOH    -0.6497 ****
7351 HO1    27.398734   -9.238577   -1.269822 H    1174 MOH     0.4215 ****
7352 HC1    24.167305    1.849855  -16.456354 H    1175 MOH     0.0372 ****
7353 C1     24.733686    2.154816  -15.576007 C    1175 MOH     0.1166 ****
7354 HC2    25.119356    1.261161  -15.084567 H    1175 MOH     0.0372 ****
7355 HC3    24.079548    2.678599  -14.879506 H    1175 MOH     0.0372 ****
7356 O1     25.828342    2.969271  -15.981179 O    1175 MOH    -0.6497 ****
7357 HO1    25.477313    3.844556  -16.157955 H    1175 MOH     0.4215 ****
7358 HC1    16.083824   -7.554961  -17.059517 H    1176 MOH     0.0372 ****
7359 C1     16.642699   -6.922585  -16.370087 C    1176 MOH     0.1166 ****
7360 HC2    16.687732   -5.921968  -16.800716 H    1176 MOH     0.0372 ****
7361 HC3    17.655949   -7.316953  -16.289477 H    1176 MOH     0.0372 ****
7362 O1     15.977591   -6.910337  -15.081739 O    1176 MOH    -0.6497 ****
7363 HO1    16.444668   -7.528425  -14.516053 H    1176 MOH     0.4215 ****
7364 HC1    24.558749  -13.768092  -19.160331 H    1177 MOH     0.0372 ****
7365 C1     23.676557  -13.184705  -18.899408 C    1177 MOH     0.1166 ****
7366 HC2    23.980821  -12.186130  -18.588281 H    1177 MOH     0.0372 ****
7367 HC3    23.141354  -13.674603  -18.086236 H    1177 MOH     0.0372 ****
7368 O1     22.855565  -13.129592  -20.066842 O    1177 MOH    -0.6497 ****
7369 HO1    22.764921  -14.018348  -20.419688 H    1177 MOH     0.4215 ****
7370 HC1    26.289067  -11.905255  -14.093911 H    1178 MOH     0.0372 ****
7371 C1     25.977298  -10.861772  -14.129266 C    1178 MOH     0.1166 ****
7372 HC2    26.783279  -10.204493  -13.801168 H    1178 MOH     0.0372 ****
7373 HC3    25.134367  -10.738481  -13.450443 H    1178 MOH     0.0372 ****
7374 O1     25.524078  -10.515578  -15.423271 O    1178 MOH    -0.6497 ****
7375 HO1    25.312768   -9.579873  -15.393573 H    1178 MOH     0.4215 ****
7376 HC1    22.014366  -12.734407  -13.277202 H    1179 MOH     0.0372 ****
7377 C1     22.785706  -13.027530  -12.564439 C    1179 MOH     0.1166 ****
7378 HC2    23.683486  -13.283910  -13.127296 H    1179 MOH     0.0372 ****
7379 HC3    22.455461  -13.915878  -12.025623 H    1179 MOH     0.0372 ****
7380 O1     23.046091  -11.950162  -11.655806 O    1179 MOH    -0.6497 ****
7381 HO1    22.379829  -11.975066  -10.964963 H    1179 MOH     0.4215 ****
7382 HC1    21.885039  -12.123668   -7.394074 H    1180 MOH     0.0372 ****
7383 C1     22.368282  -12.274312   -8.359275 C    1180 MOH     0.1166 ****
7384 HC2    22.823811  -13.263905   -8.379074 H    1180 MOH     0.0372 ****
7385 HC3    23.128652  -11.505172   -8.497868 H    1180 MOH     0.0372 ****
7386 O1     21.337134  -12.224913   -9.345689 O    1180 MOH    -0.6497 ****
7387 HO1    20.824447  -11.423930   -9.215581 H    1180 MOH     0.4215 ****
7388 HC1    17.584935  -10.696024  -13.727629 H    1181 MOH     0.0372 ****
7389 C1     18.172677   -9.780323  -13.666111 C    1181 MOH     0.1166 ****
7390 HC2    18.638599   -9.569667  -14.629191 H    1181 MOH     0.0372 ****
7391 HC3    18.961338   -9.928925  -12.929306 H    1181 MOH     0.0372 ****
7392 O1     17.390945   -8.655599  -13.290637 O    1181 MOH    -0.6497 ****
7393 HO1    16.990841   -8.819715  -12.433624 H    1181 MOH     0.4215 ****
7394 HC1    30.718383    4.111387  -11.814906 H    1182 MOH     0.0372 ****
7395 C1     29.917598    3.717427  -11.189116 C    1182 MOH     0.1166 ****
7396 HC2    29.351795    2.987071  -11.768236 H    1182 MOH     0.0372 ****
7397 HC3    29.244985    4.494324  -10.827784 H    1182 MOH     0.0372 ****
7398 O1     30.414697    2.976457  -10.144719 O    1182 MOH    -0.6497 ****
7399 HO1    30.959138    3.572499   -9.625703 H    1182 MOH     0.4215 ****
7400 HC1    29.930300   10.666221  -10.648179 H    1183 MOH     0.0372 ****
7401 C1     30.970685   10.693574  -10.974156 C    1183 MOH     0.1166 ****
7402 HC2    31.554964   10.053849  -10.311597 H    1183 MOH     0.0372 ****
7403 HC3    31.311899   11.727259  -10.920415 H    1183 MOH     0.0372 ****
7404 O1     31.037658   10.211433  -12.297152 O    1183 MOH    -0.6497 ****
7405 HO1    30.442987    9.458623  -12.340993 H    1183 MOH     0.4215 ****
7406 HC1    29.756518    5.646400  -19.663791 H    1184 MOH     0.0372 ****
7407 C1     29.799242    5.888083  -18.601716 C    1184 MOH     0.1166 ****
7408 HC2    30.836163    5.826030  -18.270790 H    1184 MOH     0.0372 ****
7409 HC3    29.201684    5.186305  -18.019768 H    1184 MOH     0.0372 ****
7410 O1     29.365651    7.181822  -18.332309 O    1184 MOH    -0.6497 ****
7411 HO1    28.596044    7.373291  -18.873245 H    1184 MOH     0.4215 ****
7412 HC1    27.153245    9.583955  -11.948549 H    1185 MOH     0.0372 ****
7413 C1     26.718500    8.698465  -11.485394 C    1185 MOH     0.1166 ****
7414 HC2    26.306272    8.023630  -12.235634 H    1185 MOH     0.0372 ****
7415 HC3    25.896354    8.984647  -10.828492 H    1185 MOH     0.0372 ****
7416 O1     27.623786    7.995869  -10.689899 O    1185 MOH    -0.6497 ****
7417 HO1    27.097242    7.278169  -10.329274 H    1185 MOH     0.4215 ****
7418 HC1    31.325756    8.084867   -9.209217 H    1186 MOH     0.0372 ****
7419 C1     30.934312    7.315728   -9.873897 C    1186 MOH     0.1166 ****
7420 HC2    31.433720    7.349612  -10.841927 H    1186 MOH     0.0372 ****
7421 HC3    29.862750    7.478210   -9.998348 H    1186 MOH     0.0372 ****
7422 O1     31.075186    6.048933   -9.289120 O    1186 MOH    -0.6497 ****
7423 HO1    30.628894    6.048525   -8.439885 H    1186 MOH     0.4215 ****
7424 HC1    30.408346   11.210008  -15.134065 H    1187 MOH     0.0372 ****
7425 C1     30.242069   12.280435  -15.015271 C    1187 MOH     0.1166 ****
7426 HC2    30.595407   12.601318  -14.035221 H    1187 MOH     0.0372 ****
7427 HC3    29.175126   12.493541  -15.087396 H    1187 MOH     0.0372 ****
7428 O1     30.929116   12.994870  -16.025019 O    1187 MOH    -0.6497 ****
7429 HO1    30.838472   12.464963  -16.819807 H    1187 MOH     0.4215 ****
7430 HC1    27.682098    8.847475  -17.059517 H    1188 MOH     0.0372 ****
7431 C1     28.240973    9.479852  -16.370087 C    1188 MOH     0.1166 ****
7432 HC2    28.286006   10.480468  -16.800716 H    1188 MOH     0.0372 ****
7433 HC3    29.254223    9.085484  -16.289477 H    1188 MOH     0.0372 ****
7434 O1     27.575866    9.492099  -15.081739 O    1188 MOH    -0.6497 ****
7435 HO1    28.042942    8.874011  -14.516053 H    1188 MOH     0.4215 ****
7436 HC1    29.183209    5.706413  -13.727629 H    1189 MOH     0.0372 ****
7437 C1     29.770951    6.622114  -13.666111 C    1189 MOH     0.1166 ****
7438 HC2    30.236873    6.832770  -14.629191 H    1189 MOH     0.0372 ****
7439 HC3    30.559612    6.473511  -12.929306 H    1189 MOH     0.0372 ****
7440 O1     28.989219    7.746838  -13.290637 O    1189 MOH    -0.6497 ****
7441 HO1    28.589115    7.582722  -12.433624 H    1189 MOH     0.4215 ****
7442 HC1   -28.031972   -7.914220   10.705455 H    1190 MOH     0.0372 ****
7443 C1    -28.226539   -7.172841   11.480444 C    1190 MOH     0.1166 ****
7444 HC2   -29.290596   -7.130791   11.713082 H    1190 MOH     0.0372 ****
7445 HC3   -27.925162   -6.184472   11.133255 H    1190 MOH     0.0372 ****
7446 O1    -27.556813   -7.503114   12.691718 O    1190 MOH    -0.6497 ****
7447 HO1   -27.774474   -8.397586   12.963954 H    1190 MOH     0.4215 ****
7448 HC1   -28.352979   -5.884409   14.487062 H    1191 MOH     0.0372 ****
7449 C1    -28.270418   -4.944622   15.032949 C    1191 MOH     0.1166 ****
7450 HC2   -29.097184   -4.288975   14.760005 H    1191 MOH     0.0372 ****
7451 HC3   -27.313171   -4.482484   14.788290 H    1191 MOH     0.0372 ****
7452 O1    -28.311410   -5.302655   16.374330 O    1191 MOH    -0.6497 ****
7453 HO1   -28.087398   -4.559643   16.938601 H    1191 MOH     0.4215 ****
7454 HC1   -28.794652  -12.390254   12.720709 H    1192 MOH     0.0372 ****
7455 C1    -29.700515  -12.065696   12.209471 C    1192 MOH     0.1166 ****
7456 HC2   -30.586170  -12.458431   12.708689 H    1192 MOH     0.0372 ****
7457 HC3   -29.693009  -12.413932   11.176388 H    1192 MOH     0.0372 ****
7458 O1    -29.793468  -10.673570   12.223613 O    1192 MOH    -0.6497 ****
7459 HO1   -29.523268  -10.388204   13.099719 H    1192 MOH     0.4215 ****
7460 HC1   -29.194756  -13.496198   17.157804 H    1193 MOH     0.0372 ****
7461 C1    -28.810818  -12.899339   16.330490 C    1193 MOH     0.1166 ****
7462 HC2   -28.123194  -13.516611   15.752076 H    1193 MOH     0.0372 ****
7463 HC3   -28.309678  -12.037527   16.772431 H    1193 MOH     0.0372 ****
7464 O1    -29.876029  -12.459656   15.543480 O    1193 MOH    -0.6497 ****
7465 HO1   -30.405459  -13.215732   15.281850 H    1193 MOH     0.4215 ****
7466 HC1   -29.302720   -8.039552   15.893497 H    1194 MOH     0.0372 ****
7467 C1    -28.662439   -8.914836   16.002392 C    1194 MOH     0.1166 ****
7468 HC2   -28.812550   -9.315736   17.005069 H    1194 MOH     0.0372 ****
7469 HC3   -27.623786   -8.602118   15.896326 H    1194 MOH     0.0372 ****
7470 O1    -29.041758   -9.856665   14.999007 O    1194 MOH    -0.6497 ****
7471 HO1   -29.112772  -10.729908   15.391452 H    1194 MOH     0.4215 ****
7472 HC1   -31.166984   -5.826030   20.314329 H    1195 MOH     0.0372 ****
7473 C1    -30.308464   -5.464322   19.748644 C    1195 MOH     0.1166 ****
7474 HC2   -30.656607   -4.945030   18.856275 H    1195 MOH     0.0372 ****
7475 HC3   -29.679153   -6.304905   19.455194 H    1195 MOH     0.0372 ****
7476 O1    -29.559064   -4.574749   20.544139 O    1195 MOH    -0.6497 ****
7477 HO1   -29.391632   -4.993203   21.391960 H    1195 MOH     0.4215 ****
7478 HC1   -26.761917    5.350421   21.101339 H    1196 MOH     0.0372 ****
7479 C1    -26.700718    6.130175   21.859357 C    1196 MOH     0.1166 ****
7480 HC2   -26.340452    5.684368   22.787081 H    1196 MOH     0.0372 ****
7481 HC3   -27.693761    6.555570   22.005021 H    1196 MOH     0.0372 ****
7482 O1    -25.829497    7.152837   21.431558 O    1196 MOH    -0.6497 ****
7483 HO1   -24.942687    6.792762   21.365090 H    1196 MOH     0.4215 ****
7484 HC1   -20.503440   10.099573   15.320741 H    1197 MOH     0.0372 ****
7485 C1    -20.069850   10.292674   16.301498 C    1197 MOH     0.1166 ****
7486 HC2   -19.784062   11.343505   16.352410 H    1197 MOH     0.0372 ****
7487 HC3   -19.181885    9.673362   16.428070 H    1197 MOH     0.0372 ****
7488 O1    -21.024210    9.977915   17.309125 O    1197 MOH    -0.6497 ****
7489 HO1   -20.823292    9.086301   17.601867 H    1197 MOH     0.4215 ****
7490 HC1   -27.140659   -0.754116    7.688230 H    1198 MOH     0.0372 ****
7491 C1    -27.327720   -1.740036    8.113202 C    1198 MOH     0.1166 ****
7492 HC2   -27.719741   -1.645322    9.125778 H    1198 MOH     0.0372 ****
7493 HC3   -26.370474   -2.256470    8.181791 H    1198 MOH     0.0372 ****
7494 O1    -28.168920   -2.543877    7.263966 O    1198 MOH    -0.6497 ****
7495 HO1   -28.884834   -2.890071    7.801367 H    1198 MOH     0.4215 ****
7496 HC1   -24.510251   -0.282181   14.325135 H    1199 MOH     0.0372 ****
7497 C1    -25.358956    0.152603   14.853343 C    1199 MOH     0.1166 ****
7498 HC2   -25.495211    1.179756   14.515346 H    1199 MOH     0.0372 ****
7499 HC3   -25.194411    0.140356   15.930974 H    1199 MOH     0.0372 ****
7500 O1    -26.524626   -0.545501   14.519589 O    1199 MOH    -0.6497 ****
7501 HO1   -26.497491   -1.346076   15.049212 H    1199 MOH     0.4215 ****
7502 HC1   -16.433698    8.488217   10.705455 H    1200 MOH     0.0372 ****
7503 C1    -16.628265    9.229596   11.480444 C    1200 MOH     0.1166 ****
7504 HC2   -17.692322    9.271645   11.713082 H    1200 MOH     0.0372 ****
7505 HC3   -16.326888   10.217965   11.133255 H    1200 MOH     0.0372 ****
7506 O1    -15.958539    8.899323   12.691718 O    1200 MOH    -0.6497 ****
7507 HO1   -16.176200    8.004851   12.963954 H    1200 MOH     0.4215 ****
7508 HC1   -25.615877    6.793578    4.711311 H    1201 MOH     0.0372 ****
7509 C1    -26.408001    6.261222    5.237398 C    1201 MOH     0.1166 ****
7510 HC2   -26.380866    6.518827    6.295937 H    1201 MOH     0.0372 ****
7511 HC3   -26.242302    5.193653    5.095270 H    1201 MOH     0.0372 ****
7512 O1    -27.636603    6.676819    4.681612 O    1201 MOH    -0.6497 ****
7513 HO1   -28.331155    6.317969    5.239520 H    1201 MOH     0.4215 ****
7514 HC1   -24.919592   14.684609    3.591961 H    1202 MOH     0.0372 ****
7515 C1    -24.382079   15.027130    2.707370 C    1202 MOH     0.1166 ****
7516 HC2   -24.710014   14.453133    1.840457 H    1202 MOH     0.0372 ****
7517 HC3   -23.322642   14.842601    2.885561 H    1202 MOH     0.0372 ****
7518 O1    -24.642464   16.407825    2.438670 O    1202 MOH    -0.6497 ****
7519 HO1   -24.383234   16.612766    1.537815 H    1202 MOH     0.4215 ****
7520 HC1   -21.550754   12.852391   12.234220 H    1203 MOH     0.0372 ****
7521 C1    -21.502256   11.764818   12.183308 C    1203 MOH     0.1166 ****
7522 HC2   -21.880421   11.410050   11.225178 H    1203 MOH     0.0372 ****
7523 HC3   -22.109051   11.318194   12.971025 H    1203 MOH     0.0372 ****
7524 O1    -20.165690   11.330441   12.256847 O    1203 MOH    -0.6497 ****
7525 HO1   -20.198022   10.371058   12.278060 H    1203 MOH     0.4215 ****
7526 HC1   -22.353848    7.270820    5.156081 H    1204 MOH     0.0372 ****
7527 C1    -22.155239    8.231429    5.630550 C    1204 MOH     0.1166 ****
7528 HC2   -21.090605    8.448617    5.547111 H    1204 MOH     0.0372 ****
7529 HC3   -22.384447    8.196319    6.695452 H    1204 MOH     0.0372 ****
7530 O1    -22.948519    9.227146    4.979304 O    1204 MOH    -0.6497 ****
7531 HO1   -22.901176   10.003226    5.542868 H    1204 MOH     0.4215 ****
7532 HC1   -23.512590    1.803559   10.168054 H    1205 MOH     0.0372 ****
7533 C1    -23.465247    2.526975   10.982641 C    1205 MOH     0.1166 ****
7534 HC2   -24.258526    3.254474   10.811521 H    1205 MOH     0.0372 ****
7535 HC3   -22.504536    3.040552   10.935972 H    1205 MOH     0.0372 ****
7536 O1    -23.650577    1.885209   12.276646 O    1205 MOH    -0.6497 ****
7537 HO1   -23.842257    2.560860   12.932134 H    1205 MOH     0.4215 ****
7538 HC1   -16.754705   10.518027   14.487062 H    1206 MOH     0.0372 ****
7539 C1    -16.672144   11.457815   15.032949 C    1206 MOH     0.1166 ****
7540 HC2   -17.498909   12.113462   14.760005 H    1206 MOH     0.0372 ****
7541 HC3   -15.714897   11.919952   14.788290 H    1206 MOH     0.0372 ****
7542 O1    -16.713136   11.099781   16.374330 O    1206 MOH    -0.6497 ****
7543 HO1   -16.489124   11.842793   16.938601 H    1206 MOH     0.4215 ****
7544 HC1   -28.847306   15.142256   14.230382 H    1207 MOH     0.0372 ****
7545 C1    -29.512991   16.001210   14.315235 C    1207 MOH     0.1166 ****
7546 HC2   -30.555108   15.681144   14.308164 H    1207 MOH     0.0372 ****
7547 HC3   -29.377891   16.625830   13.432766 H    1207 MOH     0.0372 ****
7548 O1    -29.287247   16.798111   15.518731 O    1207 MOH    -0.6497 ****
7549 HO1   -29.359993   16.231054   16.288770 H    1207 MOH     0.4215 ****
7550 HC1   -28.772828    4.488200   23.180233 H    1208 MOH     0.0372 ****
7551 C1    -28.473183    3.441043   23.165384 C    1208 MOH     0.1166 ****
7552 HC2   -27.839253    3.252433   22.298471 H    1208 MOH     0.0372 ****
7553 HC3   -29.340941    2.787030   23.086188 H    1208 MOH     0.0372 ****
7554 O1    -27.768239    3.129958   24.358980 O    1208 MOH    -0.6497 ****
7555 HO1   -27.334071    2.281618   24.240186 H    1208 MOH     0.4215 ****
7556 HC1   -21.967023   -0.859444   10.772630 H    1209 MOH     0.0372 ****
7557 C1    -22.647142   -1.428134   11.406905 C    1209 MOH     0.1166 ****
7558 HC2   -22.292649   -1.390983   12.437160 H    1209 MOH     0.0372 ****
7559 HC3   -22.701990   -2.464677   11.075272 H    1209 MOH     0.0372 ****
7560 O1    -23.879785   -0.805147   11.324881 O    1209 MOH    -0.6497 ****
7561 HO1   -23.777594    0.087692   11.660756 H    1209 MOH     0.4215 ****
7562 HC1   -28.099060    5.603943   15.756319 H    1210 MOH     0.0372 ****
7563 C1    -28.239357    5.449625   14.687173 C    1210 MOH     0.1166 ****
7564 HC2   -28.435656    6.404109   14.197855 H    1210 MOH     0.0372 ****
7565 HC3   -29.073628    4.770708   14.511104 H    1210 MOH     0.0372 ****
7566 O1    -27.063871    4.895224   14.135630 O    1210 MOH    -0.6497 ****
7567 HO1   -26.417239    4.794386   14.837787 H    1210 MOH     0.4215 ****
7568 HC1   -25.335862   13.640310   17.046789 H    1211 MOH     0.0372 ****
7569 C1    -24.853197   12.674395   16.899710 C    1211 MOH     0.1166 ****
7570 HC2   -25.626269   11.920360   16.751925 H    1211 MOH     0.0372 ****
7571 HC3   -24.288549   12.431895   17.799150 H    1211 MOH     0.0372 ****
7572 O1    -23.945025   12.702156   15.776825 O    1211 MOH    -0.6497 ****
7573 HO1   -23.233730   13.306363   16.005927 H    1211 MOH     0.4215 ****
7574 HC1   -21.637356   -0.485081   16.001685 H    1212 MOH     0.0372 ****
7575 C1    -21.803633   -0.398124   17.075780 C    1212 MOH     0.1166 ****
7576 HC2   -21.731464    0.658015   17.335288 H    1212 MOH     0.0372 ****
7577 HC3   -21.016705   -0.952117   17.588432 H    1212 MOH     0.0372 ****
7578 O1    -23.129229   -0.917007   17.309832 O    1212 MOH    -0.6497 ****
7579 HO1   -23.440421   -0.568363   18.148461 H    1212 MOH     0.4215 ****
7580 HC1   -26.841591   18.441718    8.174720 H    1213 MOH     0.0372 ****
7581 C1    -27.422406   18.823022    9.014763 C    1213 MOH     0.1166 ****
7582 HC2   -27.125070   19.830171    9.306798 H    1213 MOH     0.0372 ****
7583 HC3   -27.214560   18.167784    9.861169 H    1213 MOH     0.0372 ****
7584 O1    -28.801696   18.779340    8.729799 O    1213 MOH    -0.6497 ****
7585 HO1   -29.206996   18.104505    9.279220 H    1213 MOH     0.4215 ****
7586 HC1   -22.043811    5.652933   14.820109 H    1214 MOH     0.0372 ****
7587 C1    -22.060554    4.645784   14.402209 C    1214 MOH     0.1166 ****
7588 HC2   -21.558837    3.987280   15.110023 H    1214 MOH     0.0372 ****
7589 HC3   -21.509184    4.617207   13.461757 H    1214 MOH     0.0372 ****
7590 O1    -23.403471    4.210183   14.253010 O    1214 MOH    -0.6497 ****
7591 HO1   -23.895373    4.471054   15.035777 H    1214 MOH     0.4215 ****
7592 HC1   -27.909112    9.443926   13.951782 H    1215 MOH     0.0372 ****
7593 C1    -28.972591    9.644784   13.820260 C    1215 MOH     0.1166 ****
7594 HC2   -29.554560    8.723776   13.847130 H    1215 MOH     0.0372 ****
7595 HC3   -29.137714   10.115495   12.850817 H    1215 MOH     0.0372 ****
7596 O1    -29.422925   10.535174   14.799603 O    1215 MOH    -0.6497 ****
7597 HO1   -29.312651   11.429646   14.469384 H    1215 MOH     0.4215 ****
7598 HC1   -24.196173   12.371475   11.155175 H    1216 MOH     0.0372 ****
7599 C1    -24.600318   12.717261   10.204116 C    1216 MOH     0.1166 ****
7600 HC2   -25.533316   12.193887    9.991984 H    1216 MOH     0.0372 ****
7601 HC3   -23.879207   12.572333    9.400136 H    1216 MOH     0.0372 ****
7602 O1    -24.846846   14.083260   10.358265 O    1216 MOH    -0.6497 ****
7603 HO1   -24.022390   14.538865   10.546356 H    1216 MOH     0.4215 ****
7604 HC1   -28.428727    1.115661   16.358774 H    1217 MOH     0.0372 ****
7605 C1    -28.614634    1.701497   15.458627 C    1217 MOH     0.1166 ****
7606 HC2   -28.596736    1.077694   14.564844 H    1217 MOH     0.0372 ****
7607 HC3   -27.866966    2.486967   15.349732 H    1217 MOH     0.0372 ****
7608 O1    -29.857092    2.289783   15.588027 O    1217 MOH    -0.6497 ****
7609 HO1   -30.155582    2.400418   14.682223 H    1217 MOH     0.4215 ****
7610 HC1   -27.244005    4.690691   17.777937 H    1218 MOH     0.0372 ****
7611 C1    -26.489985    3.937065   17.550249 C    1218 MOH     0.1166 ****
7612 HC2   -26.976114    3.047492   17.150733 H    1218 MOH     0.0372 ****
7613 HC3   -26.000970    3.647617   18.480094 H    1218 MOH     0.0372 ****
7614 O1    -25.555832    4.479219   16.605554 O    1218 MOH    -0.6497 ****
7615 HO1   -25.339326    5.376957   16.865062 H    1218 MOH     0.4215 ****
7616 HC1   -28.998572   13.043451    8.691615 H    1219 MOH     0.0372 ****
7617 C1    -29.235863   12.756861    9.716920 C    1219 MOH     0.1166 ****
7618 HC2   -28.473761   12.094274   10.126334 H    1219 MOH     0.0372 ****
7619 HC3   -30.189068   12.228179    9.697828 H    1219 MOH     0.0372 ****
7620 O1    -29.337477   13.883218   10.554841 O    1219 MOH    -0.6497 ****
7621 HO1   -28.563827   14.439660   10.435340 H    1219 MOH     0.4215 ****
7622 HC1   -21.956631   14.258806    9.488524 H    1220 MOH     0.0372 ****
7623 C1    -21.536320   15.142256    9.969357 C    1220 MOH     0.1166 ****
7624 HC2   -21.282863   15.884043    9.212045 H    1220 MOH     0.0372 ****
7625 HC3   -20.649510   14.859340   10.535749 H    1220 MOH     0.0372 ****
7626 O1    -22.541487   15.638686   10.792429 O    1220 MOH    -0.6497 ****
7627 HO1   -22.185262   15.835053   11.661463 H    1220 MOH     0.4215 ****
7628 HC1   -29.937921   -2.370779   18.079872 H    1221 MOH     0.0372 ****
7629 C1    -28.861740   -2.362614   17.910166 C    1221 MOH     0.1166 ****
7630 HC2   -28.441429   -1.502435   18.429889 H    1221 MOH     0.0372 ****
7631 HC3   -28.657935   -2.302194   16.841021 H    1221 MOH     0.0372 ****
7632 O1    -28.268224   -3.507343   18.410798 O    1221 MOH    -0.6497 ****
7633 HO1   -28.730104   -3.768621   19.209828 H    1221 MOH     0.4215 ****
7634 HC1   -28.628491    8.555170    9.262957 H    1222 MOH     0.0372 ****
7635 C1    -28.614057    9.262664    8.433521 C    1222 MOH     0.1166 ****
7636 HC2   -29.604790    9.693774    8.292099 H    1222 MOH     0.0372 ****
7637 HC3   -28.275152    8.769500    7.522767 H    1222 MOH     0.0372 ****
7638 O1    -27.737062   10.314311    8.740405 O    1222 MOH    -0.6497 ****
7639 HO1   -27.540763   10.321252    9.680150 H    1222 MOH     0.4215 ****
7640 HC1   -22.497031    4.720493   22.592627 H    1223 MOH     0.0372 ****
7641 C1    -22.421975    5.762343   22.282914 C    1223 MOH     0.1166 ****
7642 HC2   -21.383322    5.986880   22.039670 H    1223 MOH     0.0372 ****
7643 HC3   -22.783974    6.363693   23.118007 H    1223 MOH     0.0372 ****
7644 O1    -23.309940    5.919927   21.206698 O    1223 MOH    -0.6497 ****
7645 HO1   -22.942745    5.399410   20.488984 H    1223 MOH     0.4215 ****
7646 HC1   -23.874588   13.193687    6.614135 H    1224 MOH     0.0372 ****
7647 C1    -23.130961   12.672762    6.011680 C    1224 MOH     0.1166 ****
7648 HC2   -22.215284   13.262272    5.963597 H    1224 MOH     0.0372 ****
7649 HC3   -23.466979   12.551512    4.981426 H    1224 MOH     0.0372 ****
7650 O1    -22.792634   11.443934    6.595750 O    1224 MOH    -0.6497 ****
7651 HO1   -23.496424   11.172449    7.189013 H    1224 MOH     0.4215 ****
7652 HC1   -23.158674    7.516586   11.273969 H    1225 MOH     0.0372 ****
7653 C1    -23.197934    6.446975   11.068908 C    1225 MOH     0.1166 ****
7654 HC2   -23.976202    6.018723   11.700354 H    1225 MOH     0.0372 ****
7655 HC3   -22.229140    6.010558   11.312860 H    1225 MOH     0.0372 ****
7656 O1    -23.486609    6.155078    9.700656 O    1225 MOH    -0.6497 ****
7657 HO1   -23.057060    5.340623    9.428420 H    1225 MOH     0.4215 ****
7658 HC1   -18.997133    6.196719    9.027491 H    1226 MOH     0.0372 ****
7659 C1    -19.519635    7.125892    9.255179 C    1226 MOH     0.1166 ****
7660 HC2   -20.551938    6.912787    9.533779 H    1226 MOH     0.0372 ****
7661 HC3   -19.479221    7.772149    8.379074 H    1226 MOH     0.0372 ****
7662 O1    -18.832011    7.689275   10.321496 O    1226 MOH    -0.6497 ****
7663 HO1   -18.369554    6.974024   10.764145 H    1226 MOH     0.4215 ****
7664 HC1   -25.596824    1.410825   18.667477 H    1227 MOH     0.0372 ****
7665 C1    -25.345677    0.890308   19.591666 C    1227 MOH     0.1166 ****
7666 HC2   -26.012517    0.036661   19.712581 H    1227 MOH     0.0372 ****
7667 HC3   -25.468653    1.560243   20.442315 H    1227 MOH     0.0372 ****
7668 O1    -24.005647    0.459606   19.494792 O    1227 MOH    -0.6497 ****
7669 HO1   -23.815699   -0.096020   20.253518 H    1227 MOH     0.4215 ****
7670 HC1   -24.124004    8.341247    8.646360 H    1228 MOH     0.0372 ****
7671 C1    -25.061043    8.597219    8.153507 C    1228 MOH     0.1166 ****
7672 HC2   -25.899356    8.265313    8.766568 H    1228 MOH     0.0372 ****
7673 HC3   -25.079518    8.098340    7.184770 H    1228 MOH     0.0372 ****
7674 O1    -25.091643    9.980773    7.936425 O    1228 MOH    -0.6497 ****
7675 HO1   -26.007898   10.222047    7.784397 H    1228 MOH     0.4215 ****
7676 HC1   -27.453583    3.631287    6.938697 H    1229 MOH     0.0372 ****
7677 C1    -27.148164    2.651083    6.571709 C    1229 MOH     0.1166 ****
7678 HC2   -26.199001    2.730691    6.042086 H    1229 MOH     0.0372 ****
7679 HC3   -27.914886    2.258756    5.904907 H    1229 MOH     0.0372 ****
7680 O1    -26.994589    1.730483    7.645804 O    1229 MOH    -0.6497 ****
7681 HO1   -26.145307    1.296515    7.537617 H    1229 MOH     0.4215 ****
7682 HC1   -21.612530    0.982980   13.611664 H    1230 MOH     0.0372 ****
7683 C1    -20.741309    1.486350   13.192350 C    1230 MOH     0.1166 ****
7684 HC2   -21.039221    2.435528   12.748994 H    1230 MOH     0.0372 ****
7685 HC3   -20.302522    0.874795   12.403218 H    1230 MOH     0.0372 ****
7686 O1    -19.772515    1.761510   14.178056 O    1230 MOH    -0.6497 ****
7687 HO1   -19.342389    0.923376   14.361197 H    1230 MOH     0.4215 ****
7688 HC1   -30.167706    7.306746    1.863792 H    1231 MOH     0.0372 ****
7689 C1    -29.243946    7.494949    1.315784 C    1231 MOH     0.1166 ****
7690 HC2   -28.653317    6.580064    1.353261 H    1231 MOH     0.0372 ****
7691 HC3   -28.721444    8.318386    1.802981 H    1231 MOH     0.0372 ****
7692 O1    -29.517033    7.847267   -0.038326 O    1231 MOH    -0.6497 ****
7693 HO1   -28.735300    8.269396   -0.401778 H    1231 MOH     0.4215 ****
7694 HC1   -26.059859   16.562552   11.884909 H    1232 MOH     0.0372 ****
7695 C1    -27.074841   16.179206   11.780964 C    1232 MOH     0.1166 ****
7696 HC2   -27.795951   16.996520   11.802177 H    1232 MOH     0.0372 ****
7697 HC3   -27.309823   15.484368   12.587066 H    1232 MOH     0.0372 ****
7698 O1    -27.202435   15.467221   10.598682 O    1232 MOH    -0.6497 ****
7699 HO1   -26.481902   14.834028   10.566862 H    1232 MOH     0.4215 ****
7700 HC1   -26.526358    2.228546   11.957741 H    1233 MOH     0.0372 ****
7701 C1    -27.024612    1.452874   11.377914 C    1233 MOH     0.1166 ****
7702 HC2   -26.297728    0.707413   11.055473 H    1233 MOH     0.0372 ****
7703 HC3   -27.487069    1.926850   10.511708 H    1233 MOH     0.0372 ****
7704 O1    -27.999756    0.822130   12.174823 O    1233 MOH    -0.6497 ****
7705 HO1   -27.528061    0.453074   12.924356 H    1233 MOH     0.4215 ****
7706 HC1   -23.185810    8.280419   19.144774 H    1234 MOH     0.0372 ****
7707 C1    -23.808193    9.174891   19.135582 C    1234 MOH     0.1166 ****
7708 HC2   -23.364211    9.961993   19.745108 H    1234 MOH     0.0372 ****
7709 HC3   -24.779874    8.896873   19.544997 H    1234 MOH     0.0372 ****
7710 O1    -23.987749    9.627638   17.813999 O    1234 MOH    -0.6497 ****
7711 HO1   -23.130384    9.903205   17.480952 H    1234 MOH     0.4215 ****
7712 HC1   -27.201858   13.927309    7.664189 H    1235 MOH     0.0372 ****
7713 C1    -26.608919   13.588871    6.814953 C    1235 MOH     0.1166 ****
7714 HC2   -26.241725   12.593153    7.063148 H    1235 MOH     0.0372 ****
7715 HC3   -25.761946   14.258806    6.662925 H    1235 MOH     0.0372 ****
7716 O1    -27.413168   13.537840    5.644692 O    1235 MOH    -0.6497 ****
7717 HO1   -27.006136   12.887500    5.066985 H    1235 MOH     0.4215 ****
7718 HC1   -27.556929    8.460048   16.985270 H    1236 MOH     0.0372 ****
7719 C1    -27.103131    9.339415   17.442061 C    1236 MOH     0.1166 ****
7720 HC2   -26.265973    9.656215   16.819807 H    1236 MOH     0.0372 ****
7721 HC3   -26.799445    9.090383   18.458881 H    1236 MOH     0.0372 ****
7722 O1    -28.053450   10.337173   17.406706 O    1236 MOH    -0.6497 ****
7723 HO1   -28.381385   10.392695   16.505852 H    1236 MOH     0.4215 ****
7724 HC1   -20.193981   11.779106   22.362110 H    1237 MOH     0.0372 ****
7725 C1    -20.446860   12.643776   22.975879 C    1237 MOH     0.1166 ****
7726 HC2   -19.639147   12.827080   23.683693 H    1237 MOH     0.0372 ****
7727 HC3   -21.364847   12.411075   23.514694 H    1237 MOH     0.0372 ****
7728 O1    -20.639118   13.752170   22.119573 O    1237 MOH    -0.6497 ****
7729 HO1   -21.324432   13.481094   21.504390 H    1237 MOH     0.4215 ****
7730 HC1   -23.934633    4.519635   18.827991 H    1238 MOH     0.0372 ****
7731 C1    -23.111909    3.828879   18.642729 C    1238 MOH     0.1166 ****
7732 HC2   -22.836513    3.950129   17.595503 H    1238 MOH     0.0372 ****
7733 HC3   -23.420214    2.789071   18.749502 H    1238 MOH     0.0372 ****
7734 O1    -22.021872    4.139556   19.527319 O    1238 MOH    -0.6497 ****
7735 HO1   -21.411035    3.398994   19.540047 H    1238 MOH     0.4215 ****
7736 HC1   -28.187395    5.861139    9.632774 H    1239 MOH     0.0372 ****
7737 C1    -27.260170    5.684368   10.176539 C    1239 MOH     0.1166 ****
7738 HC2   -27.325988    4.759685   10.750003 H    1239 MOH     0.0372 ****
7739 HC3   -27.036736    6.520868   10.839098 H    1239 MOH     0.0372 ****
7740 O1    -26.256736    5.582306    9.245987 O    1239 MOH    -0.6497 ****
7741 HO1   -25.446713    5.923193    9.632774 H    1239 MOH     0.4215 ****
7742 HC1   -30.284331    6.005251    4.359879 H    1240 MOH     0.0372 ****
7743 C1    -30.004316    5.096898    4.893744 C    1240 MOH     0.1166 ****
7744 HC2   -29.196026    4.601285    4.356343 H    1240 MOH     0.0372 ****
7745 HC3   -30.835123    4.391037    4.917079 H    1240 MOH     0.0372 ****
7746 O1    -29.566685    5.358177    6.213206 O    1240 MOH    -0.6497 ****
7747 HO1   -29.914250    4.653541    6.764749 H    1240 MOH     0.4215 ****
7748 HC1   -19.100479    5.477386   17.763088 H    1241 MOH     0.0372 ****
7749 C1    -19.931864    6.160793   17.593382 C    1241 MOH     0.1166 ****
7750 HC2   -20.853892    5.700698   17.950471 H    1241 MOH     0.0372 ****
7751 HC3   -20.002300    6.348996   16.522115 H    1241 MOH     0.0372 ****
7752 O1    -19.603929    7.381456   18.245335 O    1241 MOH    -0.6497 ****
7753 HO1   -18.990783    7.184272   18.957391 H    1241 MOH     0.4215 ****
7754 HC1   -19.340657    8.303689   13.785612 H    1242 MOH     0.0372 ****
7755 C1    -20.350442    7.982806   13.529639 C    1242 MOH     0.1166 ****
7756 HC2   -21.047882    8.413507   14.248767 H    1242 MOH     0.0372 ****
7757 HC3   -20.431849    6.896457   13.564288 H    1242 MOH     0.0372 ****
7758 O1    -20.705513    8.442085   12.257554 O    1242 MOH    -0.6497 ****
7759 HO1   -20.106801    8.034653   11.628229 H    1242 MOH     0.4215 ****
7760 HC1   -25.850281   -4.482240   16.200382 H    1243 MOH     0.0372 ****
7761 C1    -25.268889   -3.724939   16.727176 C    1243 MOH     0.1166 ****
7762 HC2   -24.215225   -3.969071   16.589998 H    1243 MOH     0.0372 ****
7763 HC3   -25.498675   -3.714324   17.792079 H    1243 MOH     0.0372 ****
7764 O1    -25.397061   -2.464676   16.174926 O    1243 MOH    -0.6497 ****
7765 HO1   -24.598586   -1.988251   16.416049 H    1243 MOH     0.4215 ****
7766 HC1   -23.537416   15.412108   15.059818 H    1244 MOH     0.0372 ****
7767 C1    -24.029896   15.848525   14.190784 C    1244 MOH     0.1166 ****
7768 HC2   -24.972131   16.335974   14.441100 H    1244 MOH     0.0372 ****
7769 HC3   -24.282198   15.014066   13.536003 H    1244 MOH     0.0372 ****
7770 O1    -23.192160   16.773616   13.490749 O    1244 MOH    -0.6497 ****
7771 HO1   -23.733138   17.473354   13.118810 H    1244 MOH     0.4215 ****
7772 HC1   -25.629733   -4.804756   11.537720 H    1245 MOH     0.0372 ****
7773 C1    -25.662642   -3.719632   11.438725 C    1245 MOH     0.1166 ****
7774 HC2   -25.217505   -3.250554   12.316244 H    1245 MOH     0.0372 ****
7775 HC3   -26.700141   -3.393850   11.363771 H    1245 MOH     0.0372 ****
7776 O1    -24.976750   -3.342410   10.273413 O    1245 MOH    -0.6497 ****
7777 HO1   -24.875136   -2.389151   10.313718 H    1245 MOH     0.4215 ****
7778 HC1   -17.196378    4.012183   12.720709 H    1246 MOH     0.0372 ****
7779 C1    -18.102240    4.336740   12.209471 C    1246 MOH     0.1166 ****
7780 HC2   -18.987896    3.944005   12.708689 H    1246 MOH     0.0372 ****
7781 HC3   -18.094735    3.988504   11.176388 H    1246 MOH     0.0372 ****
7782 O1    -18.195194    5.728867   12.223613 O    1246 MOH    -0.6497 ****
7783 HO1   -17.924994    6.014232   13.099719 H    1246 MOH     0.4215 ****
7784 HC1   -24.662094    8.575990   14.705558 H    1247 MOH     0.0372 ****
7785 C1    -23.998719    7.754186   14.974966 C    1247 MOH     0.1166 ****
7786 HC2   -22.982582    8.140389   15.052747 H    1247 MOH     0.0372 ****
7787 HC3   -24.012575    6.971575   14.216240 H    1247 MOH     0.0372 ****
7788 O1    -24.376883    7.327159   16.261900 O    1247 MOH    -0.6497 ****
7789 HO1   -24.323190    8.096299   16.833242 H    1247 MOH     0.4215 ****
7790 HC1   -20.882182   14.775241   18.808899 H    1248 MOH     0.0372 ****
7791 C1    -21.221664   14.029371   18.089771 C    1248 MOH     0.1166 ****
7792 HC2   -21.728000   13.192054   18.571311 H    1248 MOH     0.0372 ****
7793 HC3   -20.334854   13.632554   17.594796 H    1248 MOH     0.0372 ****
7794 O1    -22.062863   14.649908   17.135177 O    1248 MOH    -0.6497 ****
7795 HO1   -21.533433   15.334949   16.719398 H    1248 MOH     0.4215 ****
7796 HC1   -27.513627   12.271454   12.971732 H    1249 MOH     0.0372 ****
7797 C1    -26.857180   12.547021   13.796926 C    1249 MOH     0.1166 ****
7798 HC2   -27.403931   12.511096   14.740206 H    1249 MOH     0.0372 ****
7799 HC3   -26.510770   13.569683   13.646312 H    1249 MOH     0.0372 ****
7800 O1    -25.738275   11.675003   13.861980 O    1249 MOH    -0.6497 ****
7801 HO1   -25.133212   12.001602   14.532317 H    1249 MOH     0.4215 ****
7802 HC1   -28.899845   13.910571   19.531562 H    1250 MOH     0.0372 ****
7803 C1    -28.317876   14.153070   18.642021 C    1250 MOH     0.1166 ****
7804 HC2   -28.354249   13.331266   17.927136 H    1250 MOH     0.0372 ****
7805 HC3   -27.290770   14.296365   18.979311 H    1250 MOH     0.0372 ****
7806 O1    -28.783798   15.397411   18.110277 O    1250 MOH    -0.6497 ****
7807 HO1   -28.368106   16.074695   18.648385 H    1250 MOH     0.4215 ****
7808 HC1   -29.496248   -0.035191    6.824853 H    1251 MOH     0.0372 ****
7809 C1    -30.232947    0.310595    7.549637 C    1251 MOH     0.1166 ****
7810 HC2   -30.503724   -0.497328    8.230581 H    1251 MOH     0.0372 ****
7811 HC3   -31.141696    0.610250    7.029207 H    1251 MOH     0.0372 ****
7812 O1    -29.793006    1.392045    8.343718 O    1251 MOH    -0.6497 ****
7813 HO1   -28.845574    1.323459    8.479483 H    1251 MOH     0.4215 ****
7814 HC1   -28.547661   16.520094    7.176992 H    1252 MOH     0.0372 ****
7815 C1    -29.395212   15.855466    7.346698 C    1252 MOH     0.1166 ****
7816 HC2   -30.260660   16.499273    7.502968 H    1252 MOH     0.0372 ****
7817 HC3   -29.162540   15.253708    8.224924 H    1252 MOH     0.0372 ****
7818 O1    -29.528580   15.153687    6.131181 O    1252 MOH    -0.6497 ****
7819 HO1   -28.682761   14.747888    5.926120 H    1252 MOH     0.4215 ****
7820 HC1   -30.659031   -2.285864   12.587066 H    1253 MOH     0.0372 ****
7821 C1    -29.623842   -1.981719   12.430796 C    1253 MOH     0.1166 ****
7822 HC2   -29.034945   -2.884356   12.263211 H    1253 MOH     0.0372 ****
7823 HC3   -29.250874   -1.424868   13.289223 H    1253 MOH     0.0372 ****
7824 O1    -29.626152   -1.250138   11.254170 O    1253 MOH    -0.6497 ****
7825 HO1   -28.988757   -0.541011   11.363771 H    1253 MOH     0.4215 ****
7826 HC1   -17.596482    2.906238   17.157804 H    1254 MOH     0.0372 ****
7827 C1    -17.212544    3.503097   16.330490 C    1254 MOH     0.1166 ****
7828 HC2   -16.524920    2.885826   15.752076 H    1254 MOH     0.0372 ****
7829 HC3   -16.711404    4.364909   16.772431 H    1254 MOH     0.0372 ****
7830 O1    -18.277755    3.942780   15.543480 O    1254 MOH    -0.6497 ****
7831 HO1   -18.807185    3.186705   15.281850 H    1254 MOH     0.4215 ****
7832 HC1   -27.130267   11.902397   21.758241 H    1255 MOH     0.0372 ****
7833 C1    -27.066758   10.979348   21.181949 C    1255 MOH     0.1166 ****
7834 HC2   -26.035033   10.775224   20.896278 H    1255 MOH     0.0372 ****
7835 HC3   -27.683946   11.091208   20.290994 H    1255 MOH     0.0372 ****
7836 O1    -27.584641    9.926067   21.947039 O    1255 MOH    -0.6497 ****
7837 HO1   -27.334649    9.101406   21.522774 H    1255 MOH     0.4215 ****
7838 HC1   -17.704446    8.362885   15.893497 H    1256 MOH     0.0372 ****
7839 C1    -17.064165    7.487600   16.002392 C    1256 MOH     0.1166 ****
7840 HC2   -17.214276    7.086701   17.005069 H    1256 MOH     0.0372 ****
7841 HC3   -16.025512    7.800319   15.896326 H    1256 MOH     0.0372 ****
7842 O1    -17.443484    6.545772   14.999007 O    1256 MOH    -0.6497 ****
7843 HO1   -17.514498    5.672528   15.391452 H    1256 MOH     0.4215 ****
7844 HC1   -19.568710   10.576407   20.314329 H    1257 MOH     0.0372 ****
7845 C1    -18.710190   10.938115   19.748644 C    1257 MOH     0.1166 ****
7846 HC2   -19.058333   11.457407   18.856275 H    1257 MOH     0.0372 ****
7847 HC3   -18.080879   10.097532   19.455194 H    1257 MOH     0.0372 ****
7848 O1    -17.960790   11.827688   20.544139 O    1257 MOH    -0.6497 ****
7849 HO1   -17.793358   11.409233   21.391960 H    1257 MOH     0.4215 ****
7850 HC1   -18.769657   11.897498   10.382307 H    1258 MOH     0.0372 ****
7851 C1    -19.216526   12.311462    9.478625 C    1258 MOH     0.1166 ****
7852 HC2   -20.244210   12.630304    9.650452 H    1258 MOH     0.0372 ****
7853 HC3   -19.185927   11.539056    8.709293 H    1258 MOH     0.0372 ****
7854 O1    -18.405927   13.375765    9.090423 O    1258 MOH    -0.6497 ****
7855 HO1   -18.224061   13.922002    9.858341 H    1258 MOH     0.4215 ****
7856 HC1   -25.543708    9.645192    4.976476 H    1259 MOH     0.0372 ****
7857 C1    -26.468046   10.160402    4.714846 C    1259 MOH     0.1166 ****
7858 HC2   -27.181073   10.113453    5.538626 H    1259 MOH     0.0372 ****
7859 HC3   -26.903945    9.714186    3.821770 H    1259 MOH     0.0372 ****
7860 O1    -26.230177   11.509662    4.435539 O    1259 MOH    -0.6497 ****
7861 HO1   -25.725573   11.539873    3.619538 H    1259 MOH     0.4215 ****
7862 HC1   -25.895892   -6.358140   14.700608 H    1260 MOH     0.0372 ****
7863 C1    -25.058157   -6.129930   14.040878 C    1260 MOH     0.1166 ****
7864 HC2   -24.700777   -5.128497   14.276344 H    1260 MOH     0.0372 ****
7865 HC3   -25.408608   -6.174837   13.009916 H    1260 MOH     0.0372 ****
7866 O1    -23.977357   -7.071758   14.245232 O    1260 MOH    -0.6497 ****
7867 HO1   -23.144240   -6.683514   13.967339 H    1260 MOH     0.4215 ****
7868 HC1   -25.006195   12.510687   21.813395 H    1261 MOH     0.0372 ****
7869 C1    -24.080703   12.810342   22.306956 C    1261 MOH     0.1166 ****
7870 HC2   -23.636720   11.956286   22.818901 H    1261 MOH     0.0372 ****
7871 HC3   -24.326654   13.562335   23.056489 H    1261 MOH     0.0372 ****
7872 O1    -23.198511   13.309629   21.280944 O    1261 MOH    -0.6497 ****
7873 HO1   -23.389037   14.247784   21.205991 H    1261 MOH     0.4215 ****
7874 HC1   -26.589289   16.379656   17.161340 H    1262 MOH     0.0372 ****
7875 C1    -25.643590   16.722585   17.581361 C    1262 MOH     0.1166 ****
7876 HC2   -25.757328   17.697074   18.057244 H    1262 MOH     0.0372 ****
7877 HC3   -24.913819   16.836078   16.779502 H    1262 MOH     0.0372 ****
7878 O1    -25.201917   15.800352   18.553633 O    1262 MOH    -0.6497 ****
7879 HO1   -24.370532   15.412108   18.271497 H    1262 MOH     0.4215 ****
7880 HC1   -26.671273    8.313895   12.232098 H    1263 MOH     0.0372 ****
7881 C1    -25.889541    8.987096   11.880666 C    1263 MOH     0.1166 ****
7882 HC2   -25.330088    8.552312   11.052644 H    1263 MOH     0.0372 ****
7883 HC3   -25.204226    9.192037   12.702324 H    1263 MOH     0.0372 ****
7884 O1    -26.463427   10.186530   11.435189 O    1263 MOH    -0.6497 ****
7885 HO1   -26.268283   10.829929   12.121083 H    1263 MOH     0.4215 ****
7886 HC1   -15.163643   21.752857   21.101339 H    1264 MOH     0.0372 ****
7887 C1    -15.102444   22.532611   21.859357 C    1264 MOH     0.1166 ****
7888 HC2   -14.742177   22.086804   22.787081 H    1264 MOH     0.0372 ****
7889 HC3   -16.095486   22.958006   22.005021 H    1264 MOH     0.0372 ****
7890 O1    -14.231222   23.555273   21.431558 O    1264 MOH    -0.6497 ****
7891 HO1   -13.344412   23.195198   21.365090 H    1264 MOH     0.4215 ****
7892 HC1    -8.905166   26.502009   15.320741 H    1265 MOH     0.0372 ****
7893 C1     -8.471576   26.695111   16.301498 C    1265 MOH     0.1166 ****
7894 HC2    -8.185788   27.745942   16.352410 H    1265 MOH     0.0372 ****
7895 HC3    -7.583611   26.075798   16.428070 H    1265 MOH     0.0372 ****
7896 O1     -9.425936   26.380351   17.309125 O    1265 MOH    -0.6497 ****
7897 HO1    -9.225018   25.488737   17.601867 H    1265 MOH     0.4215 ****
7898 HC1   -15.542385   15.648320    7.688230 H    1266 MOH     0.0372 ****
7899 C1    -15.729446   14.662401    8.113202 C    1266 MOH     0.1166 ****
7900 HC2   -16.121467   14.757114    9.125778 H    1266 MOH     0.0372 ****
7901 HC3   -14.772200   14.145967    8.181791 H    1266 MOH     0.0372 ****
7902 O1    -16.570646   13.858560    7.263966 O    1266 MOH    -0.6497 ****
7903 HO1   -17.286560   13.512365    7.801367 H    1266 MOH     0.4215 ****
7904 HC1   -12.911977   16.120255   14.325135 H    1267 MOH     0.0372 ****
7905 C1    -13.760682   16.555040   14.853343 C    1267 MOH     0.1166 ****
7906 HC2   -13.896937   17.582193   14.515346 H    1267 MOH     0.0372 ****
7907 HC3   -13.596137   16.542792   15.930974 H    1267 MOH     0.0372 ****
7908 O1    -14.926352   15.856935   14.519589 O    1267 MOH    -0.6497 ****
7909 HO1   -14.899217   15.056360   15.049212 H    1267 MOH     0.4215 ****
7910 HC1    -4.835424   24.890653   10.705455 H    1268 MOH     0.0372 ****
7911 C1     -5.029991   25.632032   11.480444 C    1268 MOH     0.1166 ****
7912 HC2    -6.094048   25.674082   11.713082 H    1268 MOH     0.0372 ****
7913 HC3    -4.728614   26.620401   11.133255 H    1268 MOH     0.0372 ****
7914 O1     -4.360265   25.301759   12.691718 O    1268 MOH    -0.6497 ****
7915 HO1    -4.577926   24.407287   12.963954 H    1268 MOH     0.4215 ****
7916 HC1   -14.017603   23.196015    4.711311 H    1269 MOH     0.0372 ****
7917 C1    -14.809727   22.663659    5.237398 C    1269 MOH     0.1166 ****
7918 HC2   -14.782592   22.921264    6.295937 H    1269 MOH     0.0372 ****
7919 HC3   -14.644028   21.596090    5.095270 H    1269 MOH     0.0372 ****
7920 O1    -16.038329   23.079256    4.681612 O    1269 MOH    -0.6497 ****
7921 HO1   -16.732881   22.720405    5.239520 H    1269 MOH     0.4215 ****
7922 HC1    -9.952480   29.254828   12.234220 H    1270 MOH     0.0372 ****
7923 C1     -9.903982   28.167254   12.183308 C    1270 MOH     0.1166 ****
7924 HC2   -10.282147   27.812486   11.225178 H    1270 MOH     0.0372 ****
7925 HC3   -10.510777   27.720631   12.971025 H    1270 MOH     0.0372 ****
7926 O1     -8.567416   27.732878   12.256847 O    1270 MOH    -0.6497 ****
7927 HO1    -8.599748   26.773495   12.278060 H    1270 MOH     0.4215 ****
7928 HC1   -10.755574   23.673257    5.156081 H    1271 MOH     0.0372 ****
7929 C1    -10.556965   24.633865    5.630550 C    1271 MOH     0.1166 ****
7930 HC2    -9.492331   24.851053    5.547111 H    1271 MOH     0.0372 ****
7931 HC3   -10.786173   24.598756    6.695452 H    1271 MOH     0.0372 ****
7932 O1    -11.350244   25.629583    4.979304 O    1271 MOH    -0.6497 ****
7933 HO1   -11.302902   26.405663    5.542868 H    1271 MOH     0.4215 ****
7934 HC1   -25.180670   22.386458   13.601764 H    1272 MOH     0.0372 ****
7935 C1    -24.266147   22.692645   13.094062 C    1272 MOH     0.1166 ****
7936 HC2   -23.670899   23.347067   13.731165 H    1272 MOH     0.0372 ****
7937 HC3   -24.541543   23.238881   12.191793 H    1272 MOH     0.0372 ****
7938 O1    -23.564089   21.553224   12.695960 O    1272 MOH    -0.6497 ****
7939 HO1   -22.629359   21.752041   12.785763 H    1272 MOH     0.4215 ****
7940 HC1   -11.914316   18.205996   10.168054 H    1273 MOH     0.0372 ****
7941 C1    -11.866973   18.929412   10.982641 C    1273 MOH     0.1166 ****
7942 HC2   -12.660252   19.656910   10.811521 H    1273 MOH     0.0372 ****
7943 HC3   -10.906262   19.442988   10.935972 H    1273 MOH     0.0372 ****
7944 O1    -12.052302   18.287646   12.276646 O    1273 MOH    -0.6497 ****
7945 HO1   -12.243983   18.963296   12.932134 H    1273 MOH     0.4215 ****
7946 HC1    -5.156431   26.920464   14.487062 H    1274 MOH     0.0372 ****
7947 C1     -5.073870   27.860251   15.032949 C    1274 MOH     0.1166 ****
7948 HC2    -5.900635   28.515898   14.760005 H    1274 MOH     0.0372 ****
7949 HC3    -4.116623   28.322389   14.788290 H    1274 MOH     0.0372 ****
7950 O1     -5.114862   27.502218   16.374330 O    1274 MOH    -0.6497 ****
7951 HO1    -4.890850   28.245230   16.938601 H    1274 MOH     0.4215 ****
7952 HC1   -17.174554   20.890637   23.180233 H    1275 MOH     0.0372 ****
7953 C1    -16.874909   19.843480   23.165384 C    1275 MOH     0.1166 ****
7954 HC2   -16.240979   19.654869   22.298471 H    1275 MOH     0.0372 ****
7955 HC3   -17.742667   19.189466   23.086188 H    1275 MOH     0.0372 ****
7956 O1    -16.169965   19.532395   24.358980 O    1275 MOH    -0.6497 ****
7957 HO1   -15.735797   18.684055   24.240186 H    1275 MOH     0.4215 ****
7958 HC1   -26.482018   17.386233    4.823741 H    1276 MOH     0.0372 ****
7959 C1    -26.069212   18.393790    4.786971 C    1276 MOH     0.1166 ****
7960 HC2   -26.154660   18.864500    5.766314 H    1276 MOH     0.0372 ****
7961 HC3   -26.645985   18.981668    4.072793 H    1276 MOH     0.0372 ****
7962 O1    -24.729760   18.338268    4.355636 O    1276 MOH    -0.6497 ****
7963 HO1   -24.696273   17.677723    3.659843 H    1276 MOH     0.4215 ****
7964 HC1   -10.368749   15.542992   10.772630 H    1277 MOH     0.0372 ****
7965 C1    -11.048868   14.974302   11.406905 C    1277 MOH     0.1166 ****
7966 HC2   -10.694375   15.011453   12.437160 H    1277 MOH     0.0372 ****
7967 HC3   -11.103716   13.937760   11.075272 H    1277 MOH     0.0372 ****
7968 O1    -12.281511   15.597289   11.324881 O    1277 MOH    -0.6497 ****
7969 HO1   -12.179320   16.490128   11.660756 H    1277 MOH     0.4215 ****
7970 HC1   -16.500786   22.006379   15.756319 H    1278 MOH     0.0372 ****
7971 C1    -16.641082   21.852061   14.687173 C    1278 MOH     0.1166 ****
7972 HC2   -16.837382   22.806546   14.197855 H    1278 MOH     0.0372 ****
7973 HC3   -17.475354   21.173144   14.511104 H    1278 MOH     0.0372 ****
7974 O1    -15.465597   21.297660   14.135630 O    1278 MOH    -0.6497 ****
7975 HO1   -14.818965   21.196823   14.837787 H    1278 MOH     0.4215 ****
7976 HC1   -19.044592   21.800214    8.387559 H    1279 MOH     0.0372 ****
7977 C1    -19.205672   20.787350    8.755962 C    1279 MOH     0.1166 ****
7978 HC2   -19.956805   20.832257    9.543678 H    1279 MOH     0.0372 ****
7979 HC3   -18.280757   20.386858    9.171033 H    1279 MOH     0.0372 ****
7980 O1    -19.657160   19.940643    7.699544 O    1279 MOH    -0.6497 ****
7981 HO1   -19.252438   19.082505    7.849451 H    1279 MOH     0.4215 ****
7982 HC1   -10.039082   15.917356   16.001685 H    1280 MOH     0.0372 ****
7983 C1    -10.205359   16.004313   17.075780 C    1280 MOH     0.1166 ****
7984 HC2   -10.133190   17.060451   17.335288 H    1280 MOH     0.0372 ****
7985 HC3    -9.418431   15.450320   17.588432 H    1280 MOH     0.0372 ****
7986 O1    -11.530955   15.485429   17.309832 O    1280 MOH    -0.6497 ****
7987 HO1   -11.842147   15.834073   18.148461 H    1280 MOH     0.4215 ****
7988 HC1   -10.445537   22.055369   14.820109 H    1281 MOH     0.0372 ****
7989 C1    -10.462280   21.048221   14.402209 C    1281 MOH     0.1166 ****
7990 HC2    -9.960562   20.389716   15.110023 H    1281 MOH     0.0372 ****
7991 HC3    -9.910910   21.019643   13.461757 H    1281 MOH     0.0372 ****
7992 O1    -11.805197   20.612620   14.253010 O    1281 MOH    -0.6497 ****
7993 HO1   -12.297099   20.873490   15.035777 H    1281 MOH     0.4215 ****
7994 HC1   -16.830453   17.518098   16.358774 H    1282 MOH     0.0372 ****
7995 C1    -17.016360   18.103934   15.458627 C    1282 MOH     0.1166 ****
7996 HC2   -16.998462   17.480130   14.564844 H    1282 MOH     0.0372 ****
7997 HC3   -16.268692   18.889404   15.349732 H    1282 MOH     0.0372 ****
7998 O1    -18.258818   18.692220   15.588027 O    1282 MOH    -0.6497 ****
7999 HO1   -18.557308   18.802855   14.682223 H    1282 MOH     0.4215 ****
8000 HC1   -15.645731   21.093128   17.777937 H    1283 MOH     0.0372 ****
8001 C1    -14.891711   20.339501   17.550249 C    1283 MOH     0.1166 ****
8002 HC2   -15.377840   19.449928   17.150733 H    1283 MOH     0.0372 ****
8003 HC3   -14.402695   20.050053   18.480094 H    1283 MOH     0.0372 ****
8004 O1    -13.957558   20.881655   16.605554 O    1283 MOH    -0.6497 ****
8005 HO1   -13.741052   21.779393   16.865062 H    1283 MOH     0.4215 ****
8006 HC1   -19.709122   14.463584   15.043555 H    1284 MOH     0.0372 ****
8007 C1    -20.116154   15.464200   14.898598 C    1284 MOH     0.1166 ****
8008 HC2   -21.161735   15.418477   14.593128 H    1284 MOH     0.0372 ****
8009 HC3   -19.559588   15.921847   14.081890 H    1284 MOH     0.0372 ****
8010 O1    -19.961424   16.288045   16.055425 O    1284 MOH    -0.6497 ****
8011 HO1   -19.678522   17.168229   15.795210 H    1284 MOH     0.4215 ****
8012 HC1   -20.303215   18.868991   17.265992 H    1285 MOH     0.0372 ****
8013 C1    -20.214881   19.854911   17.722076 C    1285 MOH     0.1166 ****
8014 HC2   -20.815902   19.886754   18.630001 H    1285 MOH     0.0372 ****
8015 HC3   -20.567064   20.590166   16.998705 H    1285 MOH     0.0372 ****
8016 O1    -18.874851   20.058627   18.029667 O    1285 MOH    -0.6497 ****
8017 HO1   -18.389876   19.591999   17.345895 H    1285 MOH     0.4215 ****
8018 HC1   -18.339647   14.031657   18.079872 H    1286 MOH     0.0372 ****
8019 C1    -17.263466   14.039822   17.910166 C    1286 MOH     0.1166 ****
8020 HC2   -16.843155   14.900001   18.429889 H    1286 MOH     0.0372 ****
8021 HC3   -17.059661   14.100243   16.841021 H    1286 MOH     0.0372 ****
8022 O1    -16.669950   12.895094   18.410798 O    1286 MOH    -0.6497 ****
8023 HO1   -17.131830   12.633815   19.209828 H    1286 MOH     0.4215 ****
8024 HC1   -17.030216   24.957606    9.262957 H    1287 MOH     0.0372 ****
8025 C1    -17.015783   25.665100    8.433521 C    1287 MOH     0.1166 ****
8026 HC2   -18.006516   26.096211    8.292099 H    1287 MOH     0.0372 ****
8027 HC3   -16.676878   25.171936    7.522767 H    1287 MOH     0.0372 ****
8028 O1    -16.138788   26.716748    8.740405 O    1287 MOH    -0.6497 ****
8029 HO1   -15.942489   26.723688    9.680150 H    1287 MOH     0.4215 ****
8030 HC1   -10.898757   21.122930   22.592627 H    1288 MOH     0.0372 ****
8031 C1    -10.823701   22.164780   22.282914 C    1288 MOH     0.1166 ****
8032 HC2    -9.785048   22.389316   22.039670 H    1288 MOH     0.0372 ****
8033 HC3   -11.185700   22.766129   23.118007 H    1288 MOH     0.0372 ****
8034 O1    -11.711666   22.322363   21.206698 O    1288 MOH    -0.6497 ****
8035 HO1   -11.344471   21.801847   20.488984 H    1288 MOH     0.4215 ****
8036 HC1   -21.173859   17.210278   23.141342 H    1289 MOH     0.0372 ****
8037 C1    -20.181394   17.231099   22.690915 C    1289 MOH     0.1166 ****
8038 HC2   -19.658315   18.142309   22.980829 H    1289 MOH     0.0372 ****
8039 HC3   -20.241439   17.175577   21.604799 H    1289 MOH     0.0372 ****
8040 O1    -19.446427   16.166388   23.139221 O    1289 MOH    -0.6497 ****
8041 HO1   -19.893297   15.370303   22.843650 H    1289 MOH     0.4215 ****
8042 HC1   -25.827302   21.501376    7.046884 H    1290 MOH     0.0372 ****
8043 C1    -25.039219   21.535669    6.294523 C    1290 MOH     0.1166 ****
8044 HC2   -25.459530   21.927179    5.367506 H    1290 MOH     0.0372 ****
8045 HC3   -24.641425   20.537910    6.107847 H    1290 MOH     0.0372 ****
8046 O1    -24.032898   22.435856    6.644541 O    1290 MOH    -0.6497 ****
8047 HO1   -23.205555   21.970862    6.500998 H    1290 MOH     0.4215 ****
8048 HC1   -22.623586   20.880839    4.328766 H    1291 MOH     0.0372 ****
8049 C1    -22.193460   20.310924    5.153252 C    1291 MOH     0.1166 ****
8050 HC2   -21.418078   19.667116    4.738181 H    1291 MOH     0.0372 ****
8051 HC3   -22.938819   19.662218    5.613579 H    1291 MOH     0.0372 ****
8052 O1    -21.624193   21.205396    6.092997 O    1291 MOH    -0.6497 ****
8053 HO1   -21.209655   20.666100    6.769699 H    1291 MOH     0.4215 ****
8054 HC1   -11.560400   23.919022   11.273969 H    1292 MOH     0.0372 ****
8055 C1    -11.599660   22.849412   11.068908 C    1292 MOH     0.1166 ****
8056 HC2   -12.377928   22.421159   11.700354 H    1292 MOH     0.0372 ****
8057 HC3   -10.630866   22.412995   11.312860 H    1292 MOH     0.0372 ****
8058 O1    -11.888335   22.557514    9.700656 O    1292 MOH    -0.6497 ****
8059 HO1   -11.458786   21.743059    9.428420 H    1292 MOH     0.4215 ****
8060 HC1    -7.398859   22.599156    9.027491 H    1293 MOH     0.0372 ****
8061 C1     -7.921361   23.528329    9.255179 C    1293 MOH     0.1166 ****
8062 HC2    -8.953664   23.315223    9.533779 H    1293 MOH     0.0372 ****
8063 HC3    -7.880947   24.174586    8.379074 H    1293 MOH     0.0372 ****
8064 O1     -7.233737   24.091711   10.321496 O    1293 MOH    -0.6497 ****
8065 HO1    -6.771280   23.376460   10.764145 H    1293 MOH     0.4215 ****
8066 HC1   -13.998550   17.813261   18.667477 H    1294 MOH     0.0372 ****
8067 C1    -13.747403   17.292745   19.591666 C    1294 MOH     0.1166 ****
8068 HC2   -14.414242   16.439097   19.712581 H    1294 MOH     0.0372 ****
8069 HC3   -13.870379   17.962680   20.442315 H    1294 MOH     0.0372 ****
8070 O1    -12.407373   16.862043   19.494792 O    1294 MOH    -0.6497 ****
8071 HO1   -12.217425   16.306417   20.253518 H    1294 MOH     0.4215 ****
8072 HC1   -12.525730   24.743684    8.646360 H    1295 MOH     0.0372 ****
8073 C1    -13.462769   24.999656    8.153507 C    1295 MOH     0.1166 ****
8074 HC2   -14.301082   24.667750    8.766568 H    1295 MOH     0.0372 ****
8075 HC3   -13.481244   24.500776    7.184770 H    1295 MOH     0.0372 ****
8076 O1    -13.493369   26.383209    7.936425 O    1295 MOH    -0.6497 ****
8077 HO1   -14.409624   26.624484    7.784397 H    1295 MOH     0.4215 ****
8078 HC1   -15.855309   20.033723    6.938697 H    1296 MOH     0.0372 ****
8079 C1    -15.549890   19.053519    6.571709 C    1296 MOH     0.1166 ****
8080 HC2   -14.600726   19.133128    6.042086 H    1296 MOH     0.0372 ****
8081 HC3   -16.316611   18.661193    5.904907 H    1296 MOH     0.0372 ****
8082 O1    -15.396315   18.132919    7.645804 O    1296 MOH    -0.6497 ****
8083 HO1   -14.547033   17.698951    7.537617 H    1296 MOH     0.4215 ****
8084 HC1   -10.014256   17.385417   13.611664 H    1297 MOH     0.0372 ****
8085 C1     -9.143034   17.888787   13.192350 C    1297 MOH     0.1166 ****
8086 HC2    -9.440947   18.837964   12.748994 H    1297 MOH     0.0372 ****
8087 HC3    -8.704248   17.277231   12.403218 H    1297 MOH     0.0372 ****
8088 O1     -8.174241   18.163946   14.178056 O    1297 MOH    -0.6497 ****
8089 HO1    -7.744115   17.325813   14.361197 H    1297 MOH     0.4215 ****
8090 HC1   -18.569432   23.709183    1.863792 H    1298 MOH     0.0372 ****
8091 C1    -17.645672   23.897385    1.315784 C    1298 MOH     0.1166 ****
8092 HC2   -17.055042   22.982501    1.353261 H    1298 MOH     0.0372 ****
8093 HC3   -17.123170   24.720822    1.802981 H    1298 MOH     0.0372 ****
8094 O1    -17.918758   24.249704   -0.038326 O    1298 MOH    -0.6497 ****
8095 HO1   -17.137026   24.671832   -0.401778 H    1298 MOH     0.4215 ****
8096 HC1   -20.982756   18.971053   12.774449 H    1299 MOH     0.0372 ****
8097 C1    -20.125969   18.713040   12.150781 C    1299 MOH     0.1166 ****
8098 HC2   -19.940062   19.506267   11.427411 H    1299 MOH     0.0372 ****
8099 HC3   -20.371920   17.809179   11.593581 H    1299 MOH     0.0372 ****
8100 O1    -18.962608   18.522388   12.951933 O    1299 MOH    -0.6497 ****
8101 HO1   -18.266323   18.174561   12.390490 H    1299 MOH     0.4215 ****
8102 HC1   -14.928084   18.630982   11.957741 H    1300 MOH     0.0372 ****
8103 C1    -15.426337   17.855311   11.377914 C    1300 MOH     0.1166 ****
8104 HC2   -14.699453   17.109849   11.055473 H    1300 MOH     0.0372 ****
8105 HC3   -15.888795   18.329287   10.511708 H    1300 MOH     0.0372 ****
8106 O1    -16.401482   17.224567   12.174823 O    1300 MOH    -0.6497 ****
8107 HO1   -15.929787   16.855511   12.924356 H    1300 MOH     0.4215 ****
8108 HC1   -11.587536   24.682855   19.144774 H    1301 MOH     0.0372 ****
8109 C1    -12.209919   25.577327   19.135582 C    1301 MOH     0.1166 ****
8110 HC2   -11.765937   26.364430   19.745108 H    1301 MOH     0.0372 ****
8111 HC3   -13.181600   25.299310   19.544997 H    1301 MOH     0.0372 ****
8112 O1    -12.389475   26.030074   17.813999 O    1301 MOH    -0.6497 ****
8113 HO1   -11.532110   26.305642   17.480952 H    1301 MOH     0.4215 ****
8114 HC1   -15.958654   24.862484   16.985270 H    1302 MOH     0.0372 ****
8115 C1    -15.504857   25.741851   17.442061 C    1302 MOH     0.1166 ****
8116 HC2   -14.667699   26.058652   16.819807 H    1302 MOH     0.0372 ****
8117 HC3   -15.201171   25.492820   18.458881 H    1302 MOH     0.0372 ****
8118 O1    -16.455176   26.739610   17.406706 O    1302 MOH    -0.6497 ****
8119 HO1   -16.783111   26.795132   16.505852 H    1302 MOH     0.4215 ****
8120 HC1    -8.595706   28.181543   22.362110 H    1303 MOH     0.0372 ****
8121 C1     -8.848586   29.046213   22.975879 C    1303 MOH     0.1166 ****
8122 HC2    -8.040873   29.229516   23.683693 H    1303 MOH     0.0372 ****
8123 HC3    -9.766573   28.813511   23.514694 H    1303 MOH     0.0372 ****
8124 O1     -9.040844   30.154607   22.119573 O    1303 MOH    -0.6497 ****
8125 HO1    -9.726158   29.883530   21.504390 H    1303 MOH     0.4215 ****
8126 HC1   -12.336359   20.922072   18.827991 H    1304 MOH     0.0372 ****
8127 C1    -11.513635   20.231316   18.642729 C    1304 MOH     0.1166 ****
8128 HC2   -11.238239   20.352565   17.595503 H    1304 MOH     0.0372 ****
8129 HC3   -11.821940   19.191507   18.749502 H    1304 MOH     0.0372 ****
8130 O1    -10.423597   20.541993   19.527319 O    1304 MOH    -0.6497 ****
8131 HO1    -9.812761   19.801430   19.540047 H    1304 MOH     0.4215 ****
8132 HC1   -16.589121   22.263576    9.632774 H    1305 MOH     0.0372 ****
8133 C1    -15.661896   22.086804   10.176539 C    1305 MOH     0.1166 ****
8134 HC2   -15.727714   21.162122   10.750003 H    1305 MOH     0.0372 ****
8135 HC3   -15.438462   22.923305   10.839098 H    1305 MOH     0.0372 ****
8136 O1    -14.658462   21.984742    9.245987 O    1305 MOH    -0.6497 ****
8137 HO1   -13.848439   22.325629    9.632774 H    1305 MOH     0.4215 ****
8138 HC1   -18.686057   22.407687    4.359879 H    1306 MOH     0.0372 ****
8139 C1    -18.406042   21.499335    4.893744 C    1306 MOH     0.1166 ****
8140 HC2   -17.597752   21.003721    4.356343 H    1306 MOH     0.0372 ****
8141 HC3   -19.236849   20.793474    4.917079 H    1306 MOH     0.0372 ****
8142 O1    -17.968411   21.760614    6.213206 O    1306 MOH    -0.6497 ****
8143 HO1   -18.315975   21.055977    6.764749 H    1306 MOH     0.4215 ****
8144 HC1    -7.502205   21.879822   17.763088 H    1307 MOH     0.0372 ****
8145 C1     -8.333589   22.563230   17.593382 C    1307 MOH     0.1166 ****
8146 HC2    -9.255618   22.103134   17.950471 H    1307 MOH     0.0372 ****
8147 HC3    -8.404026   22.751432   16.522115 H    1307 MOH     0.0372 ****
8148 O1     -8.005654   23.783892   18.245335 O    1307 MOH    -0.6497 ****
8149 HO1    -7.392508   23.586708   18.957391 H    1307 MOH     0.4215 ****
8150 HC1    -7.742383   24.706125   13.785612 H    1308 MOH     0.0372 ****
8151 C1     -8.752168   24.385242   13.529639 C    1308 MOH     0.1166 ****
8152 HC2    -9.449607   24.815944   14.248767 H    1308 MOH     0.0372 ****
8153 HC3    -8.833575   23.298893   13.564288 H    1308 MOH     0.0372 ****
8154 O1     -9.107239   24.844521   12.257554 O    1308 MOH    -0.6497 ****
8155 HO1    -8.508526   24.437090   11.628229 H    1308 MOH     0.4215 ****
8156 HC1   -14.252007   11.920197   16.200382 H    1309 MOH     0.0372 ****
8157 C1    -13.670615   12.677498   16.727176 C    1309 MOH     0.1166 ****
8158 HC2   -12.616951   12.433365   16.589998 H    1309 MOH     0.0372 ****
8159 HC3   -13.900401   12.688112   17.792079 H    1309 MOH     0.0372 ****
8160 O1    -13.798787   13.937760   16.174926 O    1309 MOH    -0.6497 ****
8161 HO1   -13.000312   14.414186   16.416049 H    1309 MOH     0.4215 ****
8162 HC1   -19.096553   23.277256   21.282358 H    1310 MOH     0.0372 ****
8163 C1    -18.751298   22.434223   20.684853 C    1310 MOH     0.1166 ****
8164 HC2   -18.011135   21.902276   21.283772 H    1310 MOH     0.0372 ****
8165 HC3   -18.309625   22.820018   19.766321 H    1310 MOH     0.0372 ****
8166 O1    -19.803807   21.516481   20.351099 O    1310 MOH    -0.6497 ****
8167 HO1   -19.524947   21.003313   19.589545 H    1310 MOH     0.4215 ****
8168 HC1   -14.031459   11.597681   11.537720 H    1311 MOH     0.0372 ****
8169 C1    -14.064368   12.682805   11.438725 C    1311 MOH     0.1166 ****
8170 HC2   -13.619231   13.151882   12.316244 H    1311 MOH     0.0372 ****
8171 HC3   -15.101867   13.008587   11.363771 H    1311 MOH     0.0372 ****
8172 O1    -13.378476   13.060026   10.273413 O    1311 MOH    -0.6497 ****
8173 HO1   -13.276862   14.013286   10.313718 H    1311 MOH     0.4215 ****
8174 HC1    -5.598104   20.414619   12.720709 H    1312 MOH     0.0372 ****
8175 C1     -6.503966   20.739177   12.209471 C    1312 MOH     0.1166 ****
8176 HC2    -7.389622   20.346442   12.708689 H    1312 MOH     0.0372 ****
8177 HC3    -6.496461   20.390941   11.176388 H    1312 MOH     0.0372 ****
8178 O1     -6.596920   22.131303   12.223613 O    1312 MOH    -0.6497 ****
8179 HO1    -6.326720   22.416669   13.099719 H    1312 MOH     0.4215 ****
8180 HC1   -13.063820   24.978427   14.705558 H    1313 MOH     0.0372 ****
8181 C1    -12.400445   24.156623   14.974966 C    1313 MOH     0.1166 ****
8182 HC2   -11.384308   24.542826   15.052747 H    1313 MOH     0.0372 ****
8183 HC3   -12.414301   23.374011   14.216240 H    1313 MOH     0.0372 ****
8184 O1    -12.778609   23.729595   16.261900 O    1313 MOH    -0.6497 ****
8185 HO1   -12.724916   24.498735   16.833242 H    1313 MOH     0.4215 ****
8186 HC1   -18.577515   23.941476    9.827935 H    1314 MOH     0.0372 ****
8187 C1    -19.207982   23.627941   10.659493 C    1314 MOH     0.1166 ****
8188 HC2   -20.184281   23.315223   10.288969 H    1314 MOH     0.0372 ****
8189 HC3   -19.378300   24.455052   11.349629 H    1314 MOH     0.0372 ****
8190 O1    -18.605805   22.573844   11.355286 O    1314 MOH    -0.6497 ****
8191 HO1   -19.256479   22.219485   11.964812 H    1314 MOH     0.4215 ****
8192 HC1   -26.577281   18.606079   13.024765 H    1315 MOH     0.0372 ****
8193 C1    -25.933535   19.390324   12.628078 C    1315 MOH     0.1166 ****
8194 HC2   -25.899471   20.191716   13.365591 H    1315 MOH     0.0372 ****
8195 HC3   -26.332484   19.830416   11.713082 H    1315 MOH     0.0372 ****
8196 O1    -24.621795   18.925738   12.397561 O    1315 MOH    -0.6497 ****
8197 HO1   -24.179545   19.712840   12.072292 H    1315 MOH     0.4215 ****
8198 HC1   -19.807271   25.746750   17.203059 H    1316 MOH     0.0372 ****
8199 C1    -19.644459   25.522622   18.257355 C    1316 MOH     0.1166 ****
8200 HC2   -19.076923   24.595898   18.349279 H    1316 MOH     0.0372 ****
8201 HC3   -20.628263   25.405046   18.711318 H    1316 MOH     0.0372 ****
8202 O1    -18.951638   26.599173   18.849204 O    1316 MOH    -0.6497 ****
8203 HO1   -18.113326   26.689804   18.390999 H    1316 MOH     0.4215 ****
8204 HC1   -20.084977   25.641830    7.867128 H    1317 MOH     0.0372 ****
8205 C1    -20.218345   24.619168    7.514282 C    1317 MOH     0.1166 ****
8206 HC2   -21.217161   24.541601    7.085775 H    1317 MOH     0.0372 ****
8207 HC3   -20.145021   23.902284    8.331697 H    1317 MOH     0.0372 ****
8208 O1    -19.298048   24.341968    6.502412 O    1317 MOH    -0.6497 ****
8209 HO1   -19.182001   23.394015    6.410488 H    1317 MOH     0.4215 ****
8210 HC1   -17.897974   16.367246    6.824853 H    1318 MOH     0.0372 ****
8211 C1    -18.634673   16.713032    7.549637 C    1318 MOH     0.1166 ****
8212 HC2   -18.905450   15.905109    8.230581 H    1318 MOH     0.0372 ****
8213 HC3   -19.543422   17.012686    7.029207 H    1318 MOH     0.0372 ****
8214 O1    -18.194732   17.794482    8.343718 O    1318 MOH    -0.6497 ****
8215 HO1   -17.247300   17.725896    8.479483 H    1318 MOH     0.4215 ****
8216 HC1   -19.060757   14.116573   12.587066 H    1319 MOH     0.0372 ****
8217 C1    -18.025568   14.420718   12.430796 C    1319 MOH     0.1166 ****
8218 HC2   -17.436671   13.518081   12.263211 H    1319 MOH     0.0372 ****
8219 HC3   -17.652600   14.977568   13.289223 H    1319 MOH     0.0372 ****
8220 O1    -18.027878   15.152299   11.254170 O    1319 MOH    -0.6497 ****
8221 HO1   -17.390483   15.861426   11.363771 H    1319 MOH     0.4215 ****
8222 HC1    -5.998208   19.308675   17.157804 H    1320 MOH     0.0372 ****
8223 C1     -5.614270   19.905534   16.330490 C    1320 MOH     0.1166 ****
8224 HC2    -4.926645   19.288262   15.752076 H    1320 MOH     0.0372 ****
8225 HC3    -5.113130   20.767346   16.772431 H    1320 MOH     0.0372 ****
8226 O1     -6.679481   20.345217   15.543480 O    1320 MOH    -0.6497 ****
8227 HO1    -7.208911   19.589141   15.281850 H    1320 MOH     0.4215 ****
8228 HC1    -6.106172   24.765321   15.893497 H    1321 MOH     0.0372 ****
8229 C1     -5.465891   23.890037   16.002392 C    1321 MOH     0.1166 ****
8230 HC2    -5.616002   23.489137   17.005069 H    1321 MOH     0.0372 ****
8231 HC3    -4.427237   24.202755   15.896326 H    1321 MOH     0.0372 ****
8232 O1     -5.845210   22.948208   14.999007 O    1321 MOH    -0.6497 ****
8233 HO1    -5.916224   22.074965   15.391452 H    1321 MOH     0.4215 ****
8234 HC1    -7.970436   26.978843   20.314329 H    1322 MOH     0.0372 ****
8235 C1     -7.111916   27.340551   19.748644 C    1322 MOH     0.1166 ****
8236 HC2    -7.460058   27.859843   18.856275 H    1322 MOH     0.0372 ****
8237 HC3    -6.482604   26.499968   19.455194 H    1322 MOH     0.0372 ****
8238 O1     -6.362516   28.230124   20.544139 O    1322 MOH    -0.6497 ****
8239 HO1    -6.195084   27.811670   21.391960 H    1322 MOH     0.4215 ****
8240 HC1    -7.171383   28.299935   10.382307 H    1323 MOH     0.0372 ****
8241 C1     -7.618252   28.713899    9.478625 C    1323 MOH     0.1166 ****
8242 HC2    -8.645936   29.032741    9.650452 H    1323 MOH     0.0372 ****
8243 HC3    -7.587653   27.941493    8.709293 H    1323 MOH     0.0372 ****
8244 O1     -6.807653   29.778202    9.090423 O    1323 MOH    -0.6497 ****
8245 HO1    -6.625787   30.324438    9.858341 H    1323 MOH     0.4215 ****
8246 HC1   -13.945434   26.047629    4.976476 H    1324 MOH     0.0372 ****
8247 C1    -14.869772   26.562838    4.714846 C    1324 MOH     0.1166 ****
8248 HC2   -15.582799   26.515890    5.538626 H    1324 MOH     0.0372 ****
8249 HC3   -15.305671   26.116623    3.821770 H    1324 MOH     0.0372 ****
8250 O1    -14.631903   27.912099    4.435539 O    1324 MOH    -0.6497 ****
8251 HO1   -14.127299   27.942309    3.619538 H    1324 MOH     0.4215 ****
8252 HC1   -23.685910   15.827950    5.515998 H    1325 MOH     0.0372 ****
8253 C1    -23.172069   16.136994    6.426045 C    1325 MOH     0.1166 ****
8254 HC2   -22.088959   16.110866    6.310079 H    1325 MOH     0.0372 ****
8255 HC3   -23.475177   15.497677    7.256188 H    1325 MOH     0.0372 ****
8256 O1    -23.611432   17.394398    6.708887 O    1325 MOH    -0.6497 ****
8257 HO1   -23.943409   17.756514    5.883694 H    1325 MOH     0.4215 ****
8258 HC1   -21.834348   19.036781    9.249522 H    1326 MOH     0.0372 ****
8259 C1    -22.716539   19.620168    9.510444 C    1326 MOH     0.1166 ****
8260 HC2   -22.412276   20.618743    9.821571 H    1326 MOH     0.0372 ****
8261 HC3   -23.251743   19.130270   10.323617 H    1326 MOH     0.0372 ****
8262 O1    -23.537531   19.675281    8.343011 O    1326 MOH    -0.6497 ****
8263 HO1   -23.628175   18.786525    7.990165 H    1326 MOH     0.4215 ****
8264 HC1   -14.297618   10.044296   14.700608 H    1327 MOH     0.0372 ****
8265 C1    -13.459882   10.272507   14.040878 C    1327 MOH     0.1166 ****
8266 HC2   -13.102503   11.273940   14.276344 H    1327 MOH     0.0372 ****
8267 HC3   -13.810334   10.227600   13.009916 H    1327 MOH     0.0372 ****
8268 O1    -12.379083    9.330678   14.245232 O    1327 MOH    -0.6497 ****
8269 HO1   -11.545966    9.718922   13.967339 H    1327 MOH     0.4215 ****
8270 HC1   -20.104029   20.899618   14.315942 H    1328 MOH     0.0372 ****
8271 C1    -20.415798   21.943101   14.280587 C    1328 MOH     0.1166 ****
8272 HC2   -19.609818   22.600381   14.608684 H    1328 MOH     0.0372 ****
8273 HC3   -21.258730   22.066392   14.959409 H    1328 MOH     0.0372 ****
8274 O1    -20.869018   22.289295   12.986581 O    1328 MOH    -0.6497 ****
8275 HO1   -21.080329   23.225000   13.016280 H    1328 MOH     0.4215 ****
8276 HC1   -24.378731   20.070466   15.132650 H    1329 MOH     0.0372 ****
8277 C1    -23.607391   19.777344   15.845414 C    1329 MOH     0.1166 ****
8278 HC2   -22.709611   19.520964   15.282557 H    1329 MOH     0.0372 ****
8279 HC3   -23.937635   18.888995   16.384229 H    1329 MOH     0.0372 ****
8280 O1    -23.347006   20.854711   16.754046 O    1329 MOH    -0.6497 ****
8281 HO1   -24.013268   20.829808   17.444890 H    1329 MOH     0.4215 ****
8282 HC1   -15.072999   24.716331   12.232098 H    1330 MOH     0.0372 ****
8283 C1    -14.291267   25.389533   11.880666 C    1330 MOH     0.1166 ****
8284 HC2   -13.731814   24.954748   11.052644 H    1330 MOH     0.0372 ****
8285 HC3   -13.605952   25.594473   12.702324 H    1330 MOH     0.0372 ****
8286 O1    -14.865153   26.588966   11.435189 O    1330 MOH    -0.6497 ****
8287 HO1   -14.670009   27.232366   12.121083 H    1330 MOH     0.4215 ****
8288 HC1    -3.944111   32.050757    7.688230 H    1331 MOH     0.0372 ****
8289 C1     -4.131172   31.064837    8.113202 C    1331 MOH     0.1166 ****
8290 HC2    -4.523193   31.159551    9.125778 H    1331 MOH     0.0372 ****
8291 HC3    -3.173925   30.548403    8.181791 H    1331 MOH     0.0372 ****
8292 O1     -4.972372   30.260996    7.263966 O    1331 MOH    -0.6497 ****
8293 HO1    -5.688286   29.914802    7.801367 H    1331 MOH     0.4215 ****
8294 HC1     1.229525   31.945429   10.772630 H    1332 MOH     0.0372 ****
8295 C1      0.549406   31.376739   11.406905 C    1332 MOH     0.1166 ****
8296 HC2     0.903899   31.413890   12.437160 H    1332 MOH     0.0372 ****
8297 HC3     0.494558   30.340197   11.075272 H    1332 MOH     0.0372 ****
8298 O1     -0.683236   31.999726   11.324881 O    1332 MOH    -0.6497 ****
8299 HO1    -0.581045   32.892565   11.660756 H    1332 MOH     0.4215 ****
8300 HC1     1.559192   32.319793   16.001685 H    1333 MOH     0.0372 ****
8301 C1      1.392915   32.406749   17.075780 C    1333 MOH     0.1166 ****
8302 HC2     1.465084   33.462888   17.335288 H    1333 MOH     0.0372 ****
8303 HC3     2.179844   31.852756   17.588432 H    1333 MOH     0.0372 ****
8304 O1      0.067319   31.887866   17.309832 O    1333 MOH    -0.6497 ****
8305 HO1    -0.243873   32.236510   18.148461 H    1333 MOH     0.4215 ****
8306 HC1    -6.741373   30.434094   18.079872 H    1334 MOH     0.0372 ****
8307 C1     -5.665192   30.442259   17.910166 C    1334 MOH     0.1166 ****
8308 HC2    -5.244881   31.302438   18.429889 H    1334 MOH     0.0372 ****
8309 HC3    -5.461387   30.502679   16.841021 H    1334 MOH     0.0372 ****
8310 O1     -5.071676   29.297530   18.410798 O    1334 MOH    -0.6497 ****
8311 HO1    -5.533556   29.036252   19.209828 H    1334 MOH     0.4215 ****
8312 HC1    -2.653733   28.322634   16.200382 H    1335 MOH     0.0372 ****
8313 C1     -2.072341   29.079934   16.727176 C    1335 MOH     0.1166 ****
8314 HC2    -1.018677   28.835802   16.589998 H    1335 MOH     0.0372 ****
8315 HC3    -2.302127   29.090549   17.792079 H    1335 MOH     0.0372 ****
8316 O1     -2.200513   30.340197   16.174926 O    1335 MOH    -0.6497 ****
8317 HO1    -1.402038   30.816622   16.416049 H    1335 MOH     0.4215 ****
8318 HC1    -2.433185   28.000117   11.537720 H    1336 MOH     0.0372 ****
8319 C1     -2.466094   29.085241   11.438725 C    1336 MOH     0.1166 ****
8320 HC2    -2.020957   29.554319   12.316244 H    1336 MOH     0.0372 ****
8321 HC3    -3.503592   29.411023   11.363771 H    1336 MOH     0.0372 ****
8322 O1     -1.780202   29.462463   10.273413 O    1336 MOH    -0.6497 ****
8323 HO1    -1.678588   30.415722   10.313718 H    1336 MOH     0.4215 ****
8324 HC1    -2.699344   26.446733   14.700608 H    1337 MOH     0.0372 ****
8325 C1     -1.861608   26.674943   14.040878 C    1337 MOH     0.1166 ****
8326 HC2    -1.504229   27.676376   14.276344 H    1337 MOH     0.0372 ****
8327 HC3    -2.212060   26.630036   13.009916 H    1337 MOH     0.0372 ****
8328 O1     -0.780809   25.733115   14.245232 O    1337 MOH    -0.6497 ****
8329 HO1     0.052308   26.121359   13.967339 H    1337 MOH     0.4215 ****
8330 HC1   -26.761917  -19.253234    6.896412 H    1338 MOH     0.0372 ****
8331 C1    -26.700718  -18.473480    7.654431 C    1338 MOH     0.1166 ****
8332 HC2   -26.340451  -18.919287    8.582155 H    1338 MOH     0.0372 ****
8333 HC3   -27.693760  -18.048085    7.800095 H    1338 MOH     0.0372 ****
8334 O1    -25.829496  -17.450818    7.226631 O    1338 MOH    -0.6497 ****
8335 HO1   -24.942686  -17.810893    7.160163 H    1338 MOH     0.4215 ****
8336 HC1   -20.503440  -14.504082    1.115814 H    1339 MOH     0.0372 ****
8337 C1    -20.069850  -14.310981    2.096572 C    1339 MOH     0.1166 ****
8338 HC2   -19.784062  -13.260149    2.147483 H    1339 MOH     0.0372 ****
8339 HC3   -19.181885  -14.930293    2.223144 H    1339 MOH     0.0372 ****
8340 O1    -21.024210  -14.625740    3.104199 O    1339 MOH    -0.6497 ****
8341 HO1   -20.823292  -15.517354    3.396941 H    1339 MOH     0.4215 ****
8342 HC1   -25.615877  -17.810077   -9.493616 H    1340 MOH     0.0372 ****
8343 C1    -26.408001  -18.342432   -8.967528 C    1340 MOH     0.1166 ****
8344 HC2   -26.380866  -18.084828   -7.908989 H    1340 MOH     0.0372 ****
8345 HC3   -26.242302  -19.410002   -9.109657 H    1340 MOH     0.0372 ****
8346 O1    -27.636603  -17.926836   -9.523314 O    1340 MOH    -0.6497 ****
8347 HO1   -28.331155  -18.285686   -8.965407 H    1340 MOH     0.4215 ****
8348 HC1   -24.919592   -9.919045  -10.612966 H    1341 MOH     0.0372 ****
8349 C1    -24.382079   -9.576525  -11.497556 C    1341 MOH     0.1166 ****
8350 HC2   -24.710014  -10.150522  -12.364469 H    1341 MOH     0.0372 ****
8351 HC3   -23.322641   -9.761053  -11.319366 H    1341 MOH     0.0372 ****
8352 O1    -24.642464   -8.195829  -11.766257 O    1341 MOH    -0.6497 ****
8353 HO1   -24.383234   -7.990889  -12.667111 H    1341 MOH     0.4215 ****
8354 HC1   -21.550753  -11.751264   -1.970707 H    1342 MOH     0.0372 ****
8355 C1    -21.502256  -12.838837   -2.021618 C    1342 MOH     0.1166 ****
8356 HC2   -21.880420  -13.193605   -2.979748 H    1342 MOH     0.0372 ****
8357 HC3   -22.109051  -13.285461   -1.233901 H    1342 MOH     0.0372 ****
8358 O1    -20.165690  -13.273213   -1.948079 O    1342 MOH    -0.6497 ****
8359 HO1   -20.198022  -14.232597   -1.926866 H    1342 MOH     0.4215 ****
8360 HC1   -22.353848  -17.332834   -9.048846 H    1343 MOH     0.0372 ****
8361 C1    -22.155239  -16.372226   -8.574377 C    1343 MOH     0.1166 ****
8362 HC2   -21.090605  -16.155038   -8.657816 H    1343 MOH     0.0372 ****
8363 HC3   -22.384447  -16.407336   -7.509474 H    1343 MOH     0.0372 ****
8364 O1    -22.948518  -15.376509   -9.225622 O    1343 MOH    -0.6497 ****
8365 HO1   -22.901176  -14.600429   -8.662058 H    1343 MOH     0.4215 ****
8366 HC1   -23.512590  -22.800096   -4.036873 H    1344 MOH     0.0372 ****
8367 C1    -23.465247  -22.076680   -3.222286 C    1344 MOH     0.1166 ****
8368 HC2   -24.258526  -21.349181   -3.393406 H    1344 MOH     0.0372 ****
8369 HC3   -22.504536  -21.563103   -3.268955 H    1344 MOH     0.0372 ****
8370 O1    -23.650576  -22.718446   -1.928280 O    1344 MOH    -0.6497 ****
8371 HO1   -23.842257  -22.042795   -1.272792 H    1344 MOH     0.4215 ****
8372 HC1   -28.847306   -9.461399    0.025456 H    1345 MOH     0.0372 ****
8373 C1    -29.512991   -8.602445    0.110308 C    1345 MOH     0.1166 ****
8374 HC2   -30.555108   -8.922511    0.103237 H    1345 MOH     0.0372 ****
8375 HC3   -29.377891   -7.977825   -0.772161 H    1345 MOH     0.0372 ****
8376 O1    -29.287247   -7.805544    1.313804 O    1345 MOH    -0.6497 ****
8377 HO1   -29.359993   -8.372601    2.083843 H    1345 MOH     0.4215 ****
8378 HC1   -28.772828  -20.115455    8.975306 H    1346 MOH     0.0372 ****
8379 C1    -28.473183  -21.162612    8.960457 C    1346 MOH     0.1166 ****
8380 HC2   -27.839253  -21.351222    8.093544 H    1346 MOH     0.0372 ****
8381 HC3   -29.340941  -21.816625    8.881261 H    1346 MOH     0.0372 ****
8382 O1    -27.768239  -21.473697   10.154053 O    1346 MOH    -0.6497 ****
8383 HO1   -27.334071  -22.322037   10.035259 H    1346 MOH     0.4215 ****
8384 HC1   -21.967023  -25.463099   -3.432296 H    1347 MOH     0.0372 ****
8385 C1    -22.647142  -26.031789   -2.798022 C    1347 MOH     0.1166 ****
8386 HC2   -22.292649  -25.994638   -1.767767 H    1347 MOH     0.0372 ****
8387 HC3   -22.701990  -27.068331   -3.129655 H    1347 MOH     0.0372 ****
8388 O1    -23.879784  -25.408802   -2.880046 O    1347 MOH    -0.6497 ****
8389 HO1   -23.777593  -24.515963   -2.544170 H    1347 MOH     0.4215 ****
8390 HC1   -28.099060  -18.999712    1.551392 H    1348 MOH     0.0372 ****
8391 C1    -28.239356  -19.154030    0.482247 C    1348 MOH     0.1166 ****
8392 HC2   -28.435655  -18.199545   -0.007071 H    1348 MOH     0.0372 ****
8393 HC3   -29.073628  -19.832947    0.306177 H    1348 MOH     0.0372 ****
8394 O1    -27.063871  -19.708431   -0.069297 O    1348 MOH    -0.6497 ****
8395 HO1   -26.417239  -19.809268    0.632860 H    1348 MOH     0.4215 ****
8396 HC1   -25.335862  -10.963345    2.841862 H    1349 MOH     0.0372 ****
8397 C1    -24.853197  -11.929260    2.694784 C    1349 MOH     0.1166 ****
8398 HC2   -25.626269  -12.683295    2.546998 H    1349 MOH     0.0372 ****
8399 HC3   -24.288549  -12.171759    3.594224 H    1349 MOH     0.0372 ****
8400 O1    -23.945025  -11.901499    1.571898 O    1349 MOH    -0.6497 ****
8401 HO1   -23.233730  -11.297292    1.801001 H    1349 MOH     0.4215 ****
8402 HC1   -21.637356  -25.088735    1.796758 H    1350 MOH     0.0372 ****
8403 C1    -21.803633  -25.001778    2.870853 C    1350 MOH     0.1166 ****
8404 HC2   -21.731464  -23.945640    3.130362 H    1350 MOH     0.0372 ****
8405 HC3   -21.016705  -25.555771    3.383506 H    1350 MOH     0.0372 ****
8406 O1    -23.129229  -25.520662    3.104906 O    1350 MOH    -0.6497 ****
8407 HO1   -23.440421  -25.172018    3.943534 H    1350 MOH     0.4215 ****
8408 HC1   -22.771272   -7.691643   10.977833 H    1351 MOH     0.0372 ****
8409 C1    -23.482568   -8.517529   10.967226 C    1351 MOH     0.1166 ****
8410 HC2   -23.120569   -9.248702   10.243856 H    1351 MOH     0.0372 ****
8411 HC3   -24.471569   -8.145207   10.697111 H    1351 MOH     0.0372 ****
8412 O1    -23.546076   -9.091118   12.252039 O    1351 MOH    -0.6497 ****
8413 HO1   -23.822050   -8.407302   12.866515 H    1351 MOH     0.4215 ****
8414 HC1   -26.841591   -6.161936   -6.030207 H    1352 MOH     0.0372 ****
8415 C1    -27.422406   -5.780633   -5.190164 C    1352 MOH     0.1166 ****
8416 HC2   -27.125070   -4.773484   -4.898129 H    1352 MOH     0.0372 ****
8417 HC3   -27.214560   -6.435871   -4.343757 H    1352 MOH     0.0372 ****
8418 O1    -28.801695   -5.824315   -5.475128 O    1352 MOH    -0.6497 ****
8419 HO1   -29.206995   -6.499150   -4.925706 H    1352 MOH     0.4215 ****
8420 HC1   -22.043811  -18.950722    0.615183 H    1353 MOH     0.0372 ****
8421 C1    -22.060554  -19.957871    0.197283 C    1353 MOH     0.1166 ****
8422 HC2   -21.558836  -20.616375    0.905097 H    1353 MOH     0.0372 ****
8423 HC3   -21.509184  -19.986448   -0.743169 H    1353 MOH     0.0372 ****
8424 O1    -23.403471  -20.393472    0.048083 O    1353 MOH    -0.6497 ****
8425 HO1   -23.895373  -20.132601    0.830850 H    1353 MOH     0.4215 ****
8426 HC1   -27.909112  -15.159729   -0.253144 H    1354 MOH     0.0372 ****
8427 C1    -28.972591  -14.958871   -0.384666 C    1354 MOH     0.1166 ****
8428 HC2   -29.554560  -15.879879   -0.357796 H    1354 MOH     0.0372 ****
8429 HC3   -29.137713  -14.488160   -1.354110 H    1354 MOH     0.0372 ****
8430 O1    -29.422924  -14.068481    0.594677 O    1354 MOH    -0.6497 ****
8431 HO1   -29.312651  -13.174009    0.264458 H    1354 MOH     0.4215 ****
8432 HC1   -24.196172  -12.232180   -3.049752 H    1355 MOH     0.0372 ****
8433 C1    -24.600318  -11.886394   -4.000810 C    1355 MOH     0.1166 ****
8434 HC2   -25.533316  -12.409768   -4.212942 H    1355 MOH     0.0372 ****
8435 HC3   -23.879207  -12.031322   -4.804791 H    1355 MOH     0.0372 ****
8436 O1    -24.846846  -10.520395   -3.846661 O    1355 MOH    -0.6497 ****
8437 HO1   -24.022390  -10.064790   -3.658571 H    1355 MOH     0.4215 ****
8438 HC1   -28.428727  -23.487994    2.153847 H    1356 MOH     0.0372 ****
8439 C1    -28.614634  -22.902158    1.253700 C    1356 MOH     0.1166 ****
8440 HC2   -28.596736  -23.525961    0.359917 H    1356 MOH     0.0372 ****
8441 HC3   -27.866965  -22.116688    1.144806 H    1356 MOH     0.0372 ****
8442 O1    -29.857092  -22.313872    1.383101 O    1356 MOH    -0.6497 ****
8443 HO1   -30.155582  -22.203236    0.477297 H    1356 MOH     0.4215 ****
8444 HC1   -27.244005  -19.912964    3.573010 H    1357 MOH     0.0372 ****
8445 C1    -26.489985  -20.666590    3.345322 C    1357 MOH     0.1166 ****
8446 HC2   -26.976114  -21.556163    2.945807 H    1357 MOH     0.0372 ****
8447 HC3   -26.000969  -20.956038    4.275167 H    1357 MOH     0.0372 ****
8448 O1    -25.555832  -20.124436    2.400627 O    1357 MOH    -0.6497 ****
8449 HO1   -25.339326  -19.226698    2.660136 H    1357 MOH     0.4215 ****
8450 HC1   -28.998572  -11.560204   -5.513312 H    1358 MOH     0.0372 ****
8451 C1    -29.235863  -11.846794   -4.488007 C    1358 MOH     0.1166 ****
8452 HC2   -28.473761  -12.509381   -4.078592 H    1358 MOH     0.0372 ****
8453 HC3   -30.189068  -12.375475   -4.507099 H    1358 MOH     0.0372 ****
8454 O1    -29.337477  -10.720437   -3.650085 O    1358 MOH    -0.6497 ****
8455 HO1   -28.563827  -10.163994   -3.769586 H    1358 MOH     0.4215 ****
8456 HC1   -21.956631  -10.344848   -4.716402 H    1359 MOH     0.0372 ****
8457 C1    -21.536320   -9.461399   -4.235570 C    1359 MOH     0.1166 ****
8458 HC2   -21.282863   -8.719612   -4.992881 H    1359 MOH     0.0372 ****
8459 HC3   -20.649510   -9.744315   -3.669177 H    1359 MOH     0.0372 ****
8460 O1    -22.541487   -8.964969   -3.412497 O    1359 MOH    -0.6497 ****
8461 HO1   -22.185261   -8.768602   -2.543463 H    1359 MOH     0.4215 ****
8462 HC1   -27.605426   -8.037021    7.859492 H    1360 MOH     0.0372 ****
8463 C1    -27.648150   -7.162961    7.209661 C    1360 MOH     0.1166 ****
8464 HC2   -26.847365   -6.462815    7.447956 H    1360 MOH     0.0372 ****
8465 HC3   -28.587499   -6.646935    7.404822 H    1360 MOH     0.0372 ****
8466 O1    -27.647572   -7.517321    5.818074 O    1360 MOH    -0.6497 ****
8467 HO1   -27.538453   -6.724911    5.287037 H    1360 MOH     0.4215 ****
8468 HC1   -28.628490  -16.048485   -4.941969 H    1361 MOH     0.0372 ****
8469 C1    -28.614057  -15.340991   -5.771406 C    1361 MOH     0.1166 ****
8470 HC2   -29.604790  -14.909881   -5.912827 H    1361 MOH     0.0372 ****
8471 HC3   -28.275152  -15.834155   -6.682159 H    1361 MOH     0.0372 ****
8472 O1    -27.737062  -14.289343   -5.464521 O    1361 MOH    -0.6497 ****
8473 HO1   -27.540762  -14.282403   -4.524776 H    1361 MOH     0.4215 ****
8474 HC1   -22.497031  -19.883161    8.387701 H    1362 MOH     0.0372 ****
8475 C1    -22.421975  -18.841312    8.077988 C    1362 MOH     0.1166 ****
8476 HC2   -21.383322  -18.616775    7.834743 H    1362 MOH     0.0372 ****
8477 HC3   -22.783974  -18.239962    8.913081 H    1362 MOH     0.0372 ****
8478 O1    -23.309940  -18.683728    7.001771 O    1362 MOH    -0.6497 ****
8479 HO1   -22.942745  -19.204244    6.284058 H    1362 MOH     0.4215 ****
8480 HC1   -23.874588  -11.409968   -7.590791 H    1363 MOH     0.0372 ****
8481 C1    -23.130961  -11.930893   -8.193246 C    1363 MOH     0.1166 ****
8482 HC2   -22.215284  -11.341383   -8.241330 H    1363 MOH     0.0372 ****
8483 HC3   -23.466979  -12.052143   -9.223501 H    1363 MOH     0.0372 ****
8484 O1    -22.792634  -13.159720   -7.609176 O    1363 MOH    -0.6497 ****
8485 HO1   -23.496424  -13.431206   -7.015914 H    1363 MOH     0.4215 ****
8486 HC1   -23.158674  -17.087069   -2.930958 H    1364 MOH     0.0372 ****
8487 C1    -23.197934  -18.156679   -3.136019 C    1364 MOH     0.1166 ****
8488 HC2   -23.976202  -18.584932   -2.504572 H    1364 MOH     0.0372 ****
8489 HC3   -22.229140  -18.593097   -2.892067 H    1364 MOH     0.0372 ****
8490 O1    -23.486609  -18.448577   -4.504270 O    1364 MOH    -0.6497 ****
8491 HO1   -23.057060  -19.263032   -4.776506 H    1364 MOH     0.4215 ****
8492 HC1   -18.997133  -18.406936   -5.177436 H    1365 MOH     0.0372 ****
8493 C1    -19.519635  -17.477763   -4.949748 C    1365 MOH     0.1166 ****
8494 HC2   -20.551937  -17.690868   -4.671147 H    1365 MOH     0.0372 ****
8495 HC3   -19.479221  -16.831506   -5.825853 H    1365 MOH     0.0372 ****
8496 O1    -18.832011  -16.914380   -3.883431 O    1365 MOH    -0.6497 ****
8497 HO1   -18.369553  -17.629631   -3.440782 H    1365 MOH     0.4215 ****
8498 HC1   -25.596824  -23.192830    4.462551 H    1366 MOH     0.0372 ****
8499 C1    -25.345677  -23.713347    5.386739 C    1366 MOH     0.1166 ****
8500 HC2   -26.012516  -24.566994    5.507655 H    1366 MOH     0.0372 ****
8501 HC3   -25.468652  -23.043411    6.237389 H    1366 MOH     0.0372 ****
8502 O1    -24.005647  -24.144049    5.289866 O    1366 MOH    -0.6497 ****
8503 HO1   -23.815699  -24.699675    6.048591 H    1366 MOH     0.4215 ****
8504 HC1   -24.124004  -16.262407   -5.558567 H    1367 MOH     0.0372 ****
8505 C1    -25.061043  -16.006436   -6.051420 C    1367 MOH     0.1166 ****
8506 HC2   -25.899356  -16.338342   -5.438358 H    1367 MOH     0.0372 ****
8507 HC3   -25.079518  -16.505315   -7.020156 H    1367 MOH     0.0372 ****
8508 O1    -25.091643  -14.622882   -6.268502 O    1367 MOH    -0.6497 ****
8509 HO1   -26.007898  -14.381608   -6.420530 H    1367 MOH     0.4215 ****
8510 HC1   -27.453583  -20.972368   -7.266229 H    1368 MOH     0.0372 ****
8511 C1    -27.148164  -21.952572   -7.633218 C    1368 MOH     0.1166 ****
8512 HC2   -26.199000  -21.872964   -8.162841 H    1368 MOH     0.0372 ****
8513 HC3   -27.914885  -22.344899   -8.300020 H    1368 MOH     0.0372 ****
8514 O1    -26.994589  -22.873172   -6.559123 O    1368 MOH    -0.6497 ****
8515 HO1   -26.145307  -23.307140   -6.667310 H    1368 MOH     0.4215 ****
8516 HC1   -21.612530  -23.620675   -0.593263 H    1369 MOH     0.0372 ****
8517 C1    -20.741308  -23.117304   -1.012577 C    1369 MOH     0.1166 ****
8518 HC2   -21.039221  -22.168127   -1.455933 H    1369 MOH     0.0372 ****
8519 HC3   -20.302522  -23.728860   -1.801708 H    1369 MOH     0.0372 ****
8520 O1    -19.772515  -22.842145   -0.026870 O    1369 MOH    -0.6497 ****
8521 HO1   -19.342389  -23.680279    0.156271 H    1369 MOH     0.4215 ****
8522 HC1   -30.167706  -17.296909  -12.341135 H    1370 MOH     0.0372 ****
8523 C1    -29.243946  -17.108706  -12.889143 C    1370 MOH     0.1166 ****
8524 HC2   -28.653316  -18.023591  -12.851666 H    1370 MOH     0.0372 ****
8525 HC3   -28.721444  -16.285269  -12.401946 H    1370 MOH     0.0372 ****
8526 O1    -29.517032  -16.756388  -14.243252 O    1370 MOH    -0.6497 ****
8527 HO1   -28.735300  -16.334259  -14.606705 H    1370 MOH     0.4215 ****
8528 HC1   -26.059859   -8.041103   -2.320018 H    1371 MOH     0.0372 ****
8529 C1    -27.074841   -8.424448   -2.423962 C    1371 MOH     0.1166 ****
8530 HC2   -27.795951   -7.607135   -2.402749 H    1371 MOH     0.0372 ****
8531 HC3   -27.309822   -9.119287   -1.617861 H    1371 MOH     0.0372 ****
8532 O1    -27.202435   -9.136433   -3.606245 O    1371 MOH    -0.6497 ****
8533 HO1   -26.481902   -9.769627   -3.638065 H    1371 MOH     0.4215 ****
8534 HC1   -26.526358  -22.375109   -2.247185 H    1372 MOH     0.0372 ****
8535 C1    -27.024611  -23.150781   -2.827013 C    1372 MOH     0.1166 ****
8536 HC2   -26.297727  -23.896242   -3.149454 H    1372 MOH     0.0372 ****
8537 HC3   -27.487069  -22.676805   -3.693219 H    1372 MOH     0.0372 ****
8538 O1    -27.999756  -23.781524   -2.030104 O    1372 MOH    -0.6497 ****
8539 HO1   -27.528061  -24.150581   -1.280570 H    1372 MOH     0.4215 ****
8540 HC1   -23.185810  -16.323236    4.939848 H    1373 MOH     0.0372 ****
8541 C1    -23.808193  -15.428764    4.930655 C    1373 MOH     0.1166 ****
8542 HC2   -23.364211  -14.641662    5.540182 H    1373 MOH     0.0372 ****
8543 HC3   -24.779874  -15.706781    5.340070 H    1373 MOH     0.0372 ****
8544 O1    -23.987749  -14.976017    3.609073 O    1373 MOH    -0.6497 ****
8545 HO1   -23.130384  -14.700449    3.276026 H    1373 MOH     0.4215 ****
8546 HC1   -27.201858  -10.676346   -6.540738 H    1374 MOH     0.0372 ****
8547 C1    -26.608919  -11.014784   -7.389973 C    1374 MOH     0.1166 ****
8548 HC2   -26.241724  -12.010501   -7.141779 H    1374 MOH     0.0372 ****
8549 HC3   -25.761946  -10.344848   -7.542001 H    1374 MOH     0.0372 ****
8550 O1    -27.413168  -11.065815   -8.560235 O    1374 MOH    -0.6497 ****
8551 HO1   -27.006136  -11.716154   -9.137941 H    1374 MOH     0.4215 ****
8552 HC1   -27.556928  -16.143607    2.780344 H    1375 MOH     0.0372 ****
8553 C1    -27.103131  -15.264240    3.237135 C    1375 MOH     0.1166 ****
8554 HC2   -26.265973  -14.947440    2.614881 H    1375 MOH     0.0372 ****
8555 HC3   -26.799445  -15.513272    4.253954 H    1375 MOH     0.0372 ****
8556 O1    -28.053450  -14.266481    3.201779 O    1375 MOH    -0.6497 ****
8557 HO1   -28.381385  -14.210960    2.300925 H    1375 MOH     0.4215 ****
8558 HC1   -20.193980  -12.824548    8.157184 H    1376 MOH     0.0372 ****
8559 C1    -20.446860  -11.959879    8.770952 C    1376 MOH     0.1166 ****
8560 HC2   -19.639147  -11.776575    9.478766 H    1376 MOH     0.0372 ****
8561 HC3   -21.364847  -12.192580    9.309768 H    1376 MOH     0.0372 ****
8562 O1    -20.639117  -10.851484    7.914646 O    1376 MOH    -0.6497 ****
8563 HO1   -21.324432  -11.122561    7.299463 H    1376 MOH     0.4215 ****
8564 HC1   -23.934633  -20.084020    4.623064 H    1377 MOH     0.0372 ****
8565 C1    -23.111909  -20.774776    4.437802 C    1377 MOH     0.1166 ****
8566 HC2   -22.836513  -20.653526    3.390577 H    1377 MOH     0.0372 ****
8567 HC3   -23.420214  -21.814584    4.544575 H    1377 MOH     0.0372 ****
8568 O1    -22.021871  -20.464099    5.322393 O    1377 MOH    -0.6497 ****
8569 HO1   -21.411035  -21.204661    5.335121 H    1377 MOH     0.4215 ****
8570 HC1   -28.187395  -18.742516   -4.572153 H    1378 MOH     0.0372 ****
8571 C1    -27.260170  -18.919287   -4.028387 C    1378 MOH     0.1166 ****
8572 HC2   -27.325988  -19.843970   -3.454924 H    1378 MOH     0.0372 ****
8573 HC3   -27.036736  -18.082787   -3.365828 H    1378 MOH     0.0372 ****
8574 O1    -26.256735  -19.021349   -4.958940 O    1378 MOH    -0.6497 ****
8575 HO1   -25.446713  -18.680462   -4.572153 H    1378 MOH     0.4215 ****
8576 HC1   -30.284331  -18.598404   -9.845048 H    1379 MOH     0.0372 ****
8577 C1    -30.004316  -19.506757   -9.311182 C    1379 MOH     0.1166 ****
8578 HC2   -29.196026  -20.002370   -9.848583 H    1379 MOH     0.0372 ****
8579 HC3   -30.835123  -20.212618   -9.287848 H    1379 MOH     0.0372 ****
8580 O1    -29.566685  -19.245478   -7.991721 O    1379 MOH    -0.6497 ****
8581 HO1   -29.914249  -19.950114   -7.440178 H    1379 MOH     0.4215 ****
8582 HC1   -19.100479  -19.126269    3.558161 H    1380 MOH     0.0372 ****
8583 C1    -19.931863  -18.442861    3.388456 C    1380 MOH     0.1166 ****
8584 HC2   -20.853892  -18.902957    3.745545 H    1380 MOH     0.0372 ****
8585 HC3   -20.002300  -18.254659    2.317189 H    1380 MOH     0.0372 ****
8586 O1    -19.603928  -17.222199    4.040408 O    1380 MOH    -0.6497 ****
8587 HO1   -18.990782  -17.419383    4.752465 H    1380 MOH     0.4215 ****
8588 HC1   -26.593908  -16.896825   12.041321 H    1381 MOH     0.0372 ****
8589 C1    -27.485337  -16.270164   12.009501 C    1381 MOH     0.1166 ****
8590 HC2   -28.373879  -16.900908   11.969196 H    1381 MOH     0.0372 ****
8591 HC3   -27.476099  -15.652076   11.111476 H    1381 MOH     0.0372 ****
8592 O1    -27.474945  -15.422641   13.130973 O    1381 MOH    -0.6497 ****
8593 HO1   -26.719193  -14.842520   13.014300 H    1381 MOH     0.4215 ****
8594 HC1   -19.340657  -16.299966   -0.419314 H    1382 MOH     0.0372 ****
8595 C1    -20.350442  -16.620849   -0.675287 C    1382 MOH     0.1166 ****
8596 HC2   -21.047881  -16.190147    0.043841 H    1382 MOH     0.0372 ****
8597 HC3   -20.431849  -17.707198   -0.640639 H    1382 MOH     0.0372 ****
8598 O1    -20.705513  -16.161570   -1.947372 O    1382 MOH    -0.6497 ****
8599 HO1   -20.106800  -16.569002   -2.576697 H    1382 MOH     0.4215 ****
8600 HC1   -24.936913  -15.634930   10.627815 H    1383 MOH     0.0372 ****
8601 C1    -24.712324  -14.568993   10.678019 C    1383 MOH     0.1166 ****
8602 HC2   -25.071436  -14.021124    9.806864 H    1383 MOH     0.0372 ****
8603 HC3   -23.626328  -14.522453   10.605894 H    1383 MOH     0.0372 ****
8604 O1    -25.073168  -13.970910   11.944448 O    1383 MOH    -0.6497 ****
8605 HO1   -25.145336  -13.022141   11.818583 H    1383 MOH     0.4215 ****
8606 HC1   -23.537416   -9.191547    0.854892 H    1384 MOH     0.0372 ****
8607 C1    -24.029896   -8.755130   -0.014142 C    1384 MOH     0.1166 ****
8608 HC2   -24.972131   -8.267681    0.236173 H    1384 MOH     0.0372 ****
8609 HC3   -24.282198   -9.589589   -0.668923 H    1384 MOH     0.0372 ****
8610 O1    -23.192160   -7.830039   -0.714178 O    1384 MOH    -0.6497 ****
8611 HO1   -23.733138   -7.130301   -1.086116 H    1384 MOH     0.4215 ****
8612 HC1   -17.196378  -20.591472   -1.484217 H    1385 MOH     0.0372 ****
8613 C1    -18.102240  -20.266915   -1.995455 C    1385 MOH     0.1166 ****
8614 HC2   -18.987896  -20.659650   -1.496238 H    1385 MOH     0.0372 ****
8615 HC3   -18.094735  -20.615151   -3.028538 H    1385 MOH     0.0372 ****
8616 O1    -18.195194  -18.874788   -1.981313 O    1385 MOH    -0.6497 ****
8617 HO1   -17.924994  -18.589423   -1.105208 H    1385 MOH     0.4215 ****
8618 HC1   -24.662094  -16.027665    0.500631 H    1386 MOH     0.0372 ****
8619 C1    -23.998719  -16.849468    0.770039 C    1386 MOH     0.1166 ****
8620 HC2   -22.982582  -16.463266    0.847821 H    1386 MOH     0.0372 ****
8621 HC3   -24.012575  -17.632080    0.011314 H    1386 MOH     0.0372 ****
8622 O1    -24.376883  -17.276496    2.056974 O    1386 MOH    -0.6497 ****
8623 HO1   -24.323190  -16.507356    2.628316 H    1386 MOH     0.4215 ****
8624 HC1   -20.882182   -9.828414    4.603972 H    1387 MOH     0.0372 ****
8625 C1    -21.221664  -10.574284    3.884845 C    1387 MOH     0.1166 ****
8626 HC2   -21.728000  -11.411601    4.366384 H    1387 MOH     0.0372 ****
8627 HC3   -20.334854  -10.971101    3.389870 H    1387 MOH     0.0372 ****
8628 O1    -22.062863   -9.953746    2.930250 O    1387 MOH    -0.6497 ****
8629 HO1   -21.533433   -9.268706    2.514472 H    1387 MOH     0.4215 ****
8630 HC1   -27.513627  -12.332201   -1.233194 H    1388 MOH     0.0372 ****
8631 C1    -26.857180  -12.056633   -0.408001 C    1388 MOH     0.1166 ****
8632 HC2   -27.403931  -12.092559    0.535280 H    1388 MOH     0.0372 ****
8633 HC3   -26.510770  -11.033971   -0.558615 H    1388 MOH     0.0372 ****
8634 O1    -25.738275  -12.928652   -0.342947 O    1388 MOH    -0.6497 ****
8635 HO1   -25.133212  -12.602053    0.327390 H    1388 MOH     0.4215 ****
8636 HC1   -23.737179   -7.617342    6.534374 H    1389 MOH     0.0372 ****
8637 C1    -24.048948   -8.036204    7.491796 C    1389 MOH     0.1166 ****
8638 HC2   -24.576069   -7.289926    8.084352 H    1389 MOH     0.0372 ****
8639 HC3   -23.156365   -8.369743    8.020005 H    1389 MOH     0.0372 ****
8640 O1    -24.863589   -9.150314    7.264815 O    1389 MOH    -0.6497 ****
8641 HO1   -25.549482   -8.909039    6.639025 H    1389 MOH     0.4215 ****
8642 HC1   -28.899845  -10.693084    5.326635 H    1390 MOH     0.0372 ****
8643 C1    -28.317876  -10.450585    4.437095 C    1390 MOH     0.1166 ****
8644 HC2   -28.354249  -11.272388    3.722210 H    1390 MOH     0.0372 ****
8645 HC3   -27.290770  -10.307290    4.774385 H    1390 MOH     0.0372 ****
8646 O1    -28.783798   -9.206244    3.905351 O    1390 MOH    -0.6497 ****
8647 HO1   -28.368106   -8.528960    4.443459 H    1390 MOH     0.4215 ****
8648 HC1   -28.547661   -8.083561   -7.027935 H    1391 MOH     0.0372 ****
8649 C1    -29.395212   -8.748189   -6.858229 C    1391 MOH     0.1166 ****
8650 HC2   -30.260660   -8.104382   -6.701958 H    1391 MOH     0.0372 ****
8651 HC3   -29.162539   -9.349947   -5.980002 H    1391 MOH     0.0372 ****
8652 O1    -29.528579   -9.449968   -8.073745 O    1391 MOH    -0.6497 ****
8653 HO1   -28.682761   -9.855767   -8.278806 H    1391 MOH     0.4215 ****
8654 HC1   -17.596482  -21.697417    2.952878 H    1392 MOH     0.0372 ****
8655 C1    -17.212544  -21.100558    2.125563 C    1392 MOH     0.1166 ****
8656 HC2   -16.524919  -21.717829    1.547150 H    1392 MOH     0.0372 ****
8657 HC3   -16.711404  -20.238746    2.567505 H    1392 MOH     0.0372 ****
8658 O1    -18.277755  -20.660874    1.338553 O    1392 MOH    -0.6497 ****
8659 HO1   -18.807185  -21.416950    1.076924 H    1392 MOH     0.4215 ****
8660 HC1   -27.130267  -12.701257    7.553314 H    1393 MOH     0.0372 ****
8661 C1    -27.066758  -13.624307    6.977022 C    1393 MOH     0.1166 ****
8662 HC2   -26.035033  -13.828431    6.691351 H    1393 MOH     0.0372 ****
8663 HC3   -27.683945  -13.512447    6.086068 H    1393 MOH     0.0372 ****
8664 O1    -27.584641  -14.677587    7.742112 O    1393 MOH    -0.6497 ****
8665 HO1   -27.334649  -15.502249    7.317848 H    1393 MOH     0.4215 ****
8666 HC1   -17.704446  -16.240770    1.688571 H    1394 MOH     0.0372 ****
8667 C1    -17.064165  -17.116055    1.797465 C    1394 MOH     0.1166 ****
8668 HC2   -17.214276  -17.516954    2.800143 H    1394 MOH     0.0372 ****
8669 HC3   -16.025511  -16.803336    1.691399 H    1394 MOH     0.0372 ****
8670 O1    -17.443484  -18.057883    0.794081 O    1394 MOH    -0.6497 ****
8671 HO1   -17.514498  -18.931126    1.186525 H    1394 MOH     0.4215 ****
8672 HC1   -19.568710  -14.027248    6.109402 H    1395 MOH     0.0372 ****
8673 C1    -18.710190  -13.665540    5.543717 C    1395 MOH     0.1166 ****
8674 HC2   -19.058332  -13.146248    4.651348 H    1395 MOH     0.0372 ****
8675 HC3   -18.080878  -14.506123    5.250268 H    1395 MOH     0.0372 ****
8676 O1    -17.960790  -12.775967    6.339212 O    1395 MOH    -0.6497 ****
8677 HO1   -17.793358  -13.194421    7.187033 H    1395 MOH     0.4215 ****
8678 HC1   -18.769657  -12.706157   -3.822619 H    1396 MOH     0.0372 ****
8679 C1    -19.216526  -12.292193   -4.726302 C    1396 MOH     0.1166 ****
8680 HC2   -20.244210  -11.973351   -4.554475 H    1396 MOH     0.0372 ****
8681 HC3   -19.185927  -13.064599   -5.495634 H    1396 MOH     0.0372 ****
8682 O1    -18.405927  -11.227889   -5.114503 O    1396 MOH    -0.6497 ****
8683 HO1   -18.224061  -10.681653   -4.346585 H    1396 MOH     0.4215 ****
8684 HC1   -25.543708  -14.958462   -9.228451 H    1397 MOH     0.0372 ****
8685 C1    -26.468046  -14.443253   -9.490080 C    1397 MOH     0.1166 ****
8686 HC2   -27.181073  -14.490202   -8.666301 H    1397 MOH     0.0372 ****
8687 HC3   -26.903945  -14.889468  -10.383156 H    1397 MOH     0.0372 ****
8688 O1    -26.230177  -13.093992   -9.769387 O    1397 MOH    -0.6497 ****
8689 HO1   -25.725573  -13.063782  -10.585389 H    1397 MOH     0.4215 ****
8690 HC1   -26.987084   -9.879037   11.410582 H    1398 MOH     0.0372 ****
8691 C1    -26.549452  -10.782490   10.985611 C    1398 MOH     0.1166 ****
8692 HC2   -26.305810  -10.587348    9.941921 H    1398 MOH     0.0372 ****
8693 HC3   -27.254974  -11.608785   11.078949 H    1398 MOH     0.0372 ****
8694 O1    -25.413227  -11.080103   11.733023 O    1398 MOH    -0.6497 ****
8695 HO1   -24.785647  -10.354238   11.684939 H    1398 MOH     0.4215 ****
8696 HC1   -25.006195  -12.092968    7.608469 H    1399 MOH     0.0372 ****
8697 C1    -24.080702  -11.793313    8.102029 C    1399 MOH     0.1166 ****
8698 HC2   -23.636720  -12.647369    8.613975 H    1399 MOH     0.0372 ****
8699 HC3   -24.326654  -11.041320    8.851563 H    1399 MOH     0.0372 ****
8700 O1    -23.198511  -11.294026    7.076017 O    1399 MOH    -0.6497 ****
8701 HO1   -23.389037  -10.355871    7.001064 H    1399 MOH     0.4215 ****
8702 HC1   -26.589289   -8.223998    2.956413 H    1400 MOH     0.0372 ****
8703 C1    -25.643590   -7.881070    3.376435 C    1400 MOH     0.1166 ****
8704 HC2   -25.757328   -6.906581    3.852318 H    1400 MOH     0.0372 ****
8705 HC3   -24.913819   -7.767577    2.574576 H    1400 MOH     0.0372 ****
8706 O1    -25.201917   -8.803303    4.348707 O    1400 MOH    -0.6497 ****
8707 HO1   -24.370532   -9.191547    4.066571 H    1400 MOH     0.4215 ****
8708 HC1   -26.671273  -16.289760   -1.972828 H    1401 MOH     0.0372 ****
8709 C1    -25.889541  -15.616559   -2.324260 C    1401 MOH     0.1166 ****
8710 HC2   -25.330088  -16.051343   -3.152282 H    1401 MOH     0.0372 ****
8711 HC3   -25.204226  -15.411618   -1.502602 H    1401 MOH     0.0372 ****
8712 O1    -26.463427  -14.417125   -2.769737 O    1401 MOH    -0.6497 ****
8713 HO1   -26.268283  -13.773726   -2.083844 H    1401 MOH     0.4215 ****
8714 HC1   -21.771417    6.451139   -1.701299 H    1402 MOH     0.0372 ****
8715 C1    -22.807760    6.589944   -1.394415 C    1402 MOH     0.1166 ****
8716 HC2   -23.371254    6.954101   -2.252842 H    1402 MOH     0.0372 ****
8717 HC3   -22.877620    7.339896   -0.605991 H    1402 MOH     0.0372 ****
8718 O1    -23.333149    5.347236   -0.977222 O    1402 MOH    -0.6497 ****
8719 HO1   -24.095829    5.499513   -0.415072 H    1402 MOH     0.4215 ****
8720 HC1   -27.272988   -4.089831    2.390021 H    1403 MOH     0.0372 ****
8721 C1    -28.073772   -4.483791    3.015810 C    1403 MOH     0.1166 ****
8722 HC2   -28.639576   -5.214147    2.436690 H    1403 MOH     0.0372 ****
8723 HC3   -28.746385   -3.706894    3.377142 H    1403 MOH     0.0372 ****
8724 O1    -27.576674   -5.224762    4.060207 O    1403 MOH    -0.6497 ****
8725 HO1   -27.032232   -4.628719    4.579223 H    1403 MOH     0.4215 ****
8726 HC1   -15.163643   -2.850798    6.896412 H    1404 MOH     0.0372 ****
8727 C1    -15.102444   -2.071044    7.654431 C    1404 MOH     0.1166 ****
8728 HC2   -14.742177   -2.516851    8.582155 H    1404 MOH     0.0372 ****
8729 HC3   -16.095486   -1.645649    7.800095 H    1404 MOH     0.0372 ****
8730 O1    -14.231222   -1.048382    7.226631 O    1404 MOH    -0.6497 ****
8731 HO1   -13.344412   -1.408457    7.160163 H    1404 MOH     0.4215 ****
8732 HC1    -8.905166    1.898355    1.115814 H    1405 MOH     0.0372 ****
8733 C1     -8.471576    2.091456    2.096572 C    1405 MOH     0.1166 ****
8734 HC2    -8.185788    3.142287    2.147483 H    1405 MOH     0.0372 ****
8735 HC3    -7.583611    1.472143    2.223144 H    1405 MOH     0.0372 ****
8736 O1     -9.425936    1.776697    3.104199 O    1405 MOH    -0.6497 ****
8737 HO1    -9.225018    0.885082    3.396941 H    1405 MOH     0.4215 ****
8738 HC1   -20.721794    4.999817    2.967727 H    1406 MOH     0.0372 ****
8739 C1    -20.117886    5.551360    3.688269 C    1406 MOH     0.1166 ****
8740 HC2   -19.306131    4.916126    4.041822 H    1406 MOH     0.0372 ****
8741 HC3   -20.766250    5.837134    4.516998 H    1406 MOH     0.0372 ****
8742 O1    -19.613281    6.675268    3.032781 O    1406 MOH    -0.6497 ****
8743 HO1   -18.800372    6.936955    3.471894 H    1406 MOH     0.4215 ****
8744 HC1   -14.017603   -1.407640   -9.493616 H    1407 MOH     0.0372 ****
8745 C1    -14.809727   -1.939996   -8.967528 C    1407 MOH     0.1166 ****
8746 HC2   -14.782592   -1.682391   -7.908989 H    1407 MOH     0.0372 ****
8747 HC3   -14.644028   -3.007565   -9.109657 H    1407 MOH     0.0372 ****
8748 O1    -16.038329   -1.524399   -9.523314 O    1407 MOH    -0.6497 ****
8749 HO1   -16.732881   -1.883249   -8.965407 H    1407 MOH     0.4215 ****
8750 HC1   -13.321318    6.483391  -10.612966 H    1408 MOH     0.0372 ****
8751 C1    -12.783805    6.825911  -11.497556 C    1408 MOH     0.1166 ****
8752 HC2   -13.111740    6.251914  -12.364469 H    1408 MOH     0.0372 ****
8753 HC3   -11.724367    6.641383  -11.319366 H    1408 MOH     0.0372 ****
8754 O1    -13.044190    8.206607  -11.766257 O    1408 MOH    -0.6497 ****
8755 HO1   -12.784960    8.411548  -12.667111 H    1408 MOH     0.4215 ****
8756 HC1   -22.659959   -0.321700    7.352496 H    1409 MOH     0.0372 ****
8757 C1    -23.680137   -0.614414    7.600691 C    1409 MOH     0.1166 ****
8758 HC2   -23.841218   -0.556851    8.676200 H    1409 MOH     0.0372 ****
8759 HC3   -23.888560   -1.636667    7.283907 H    1409 MOH     0.0372 ****
8760 O1    -24.566369    0.278017    6.999650 O    1409 MOH    -0.6497 ****
8761 HO1   -24.114882    0.654422    6.240217 H    1409 MOH     0.4215 ****
8762 HC1    -9.952479    4.651173   -1.970707 H    1410 MOH     0.0372 ****
8763 C1     -9.903982    3.563599   -2.021618 C    1410 MOH     0.1166 ****
8764 HC2   -10.282146    3.208832   -2.979748 H    1410 MOH     0.0372 ****
8765 HC3   -10.510777    3.116976   -1.233901 H    1410 MOH     0.0372 ****
8766 O1     -8.567416    3.129223   -1.948079 O    1410 MOH    -0.6497 ****
8767 HO1    -8.599748    2.169840   -1.926866 H    1410 MOH     0.4215 ****
8768 HC1   -18.862726    3.626470   -7.544122 H    1411 MOH     0.0372 ****
8769 C1    -18.817115    3.171681   -8.534072 C    1411 MOH     0.1166 ****
8770 HC2   -17.899706    2.592785   -8.642966 H    1411 MOH     0.0372 ****
8771 HC3   -18.827508    3.949394   -9.297040 H    1411 MOH     0.0372 ****
8772 O1    -19.920432    2.335180   -8.751154 O    1411 MOH    -0.6497 ****
8773 HO1   -19.661201    1.447648   -8.493767 H    1411 MOH     0.4215 ****
8774 HC1   -10.755574   -0.930398   -9.048846 H    1412 MOH     0.0372 ****
8775 C1    -10.556965    0.030210   -8.574377 C    1412 MOH     0.1166 ****
8776 HC2    -9.492331    0.247398   -8.657816 H    1412 MOH     0.0372 ****
8777 HC3   -10.786173   -0.004899   -7.509474 H    1412 MOH     0.0372 ****
8778 O1    -11.350244    1.025928   -9.225622 O    1412 MOH    -0.6497 ****
8779 HO1   -11.302902    1.802008   -8.662058 H    1412 MOH     0.4215 ****
8780 HC1   -28.061071    2.465003    3.556747 H    1413 MOH     0.0372 ****
8781 C1    -27.020685    2.492356    3.230771 C    1413 MOH     0.1166 ****
8782 HC2   -26.436407    1.852631    3.893330 H    1413 MOH     0.0372 ****
8783 HC3   -26.679471    3.526041    3.284511 H    1413 MOH     0.0372 ****
8784 O1    -26.953713    2.010215    1.907774 O    1413 MOH    -0.6497 ****
8785 HO1   -27.548384    1.257405    1.863933 H    1413 MOH     0.4215 ****
8786 HC1   -25.180670   -2.217196   -0.603162 H    1414 MOH     0.0372 ****
8787 C1    -24.266147   -1.911010   -1.110865 C    1414 MOH     0.1166 ****
8788 HC2   -23.670899   -1.256588   -0.473762 H    1414 MOH     0.0372 ****
8789 HC3   -24.541543   -1.364774   -2.013133 H    1414 MOH     0.0372 ****
8790 O1    -23.564089   -3.050431   -1.508966 O    1414 MOH    -0.6497 ****
8791 HO1   -22.629359   -2.851614   -1.419164 H    1414 MOH     0.4215 ****
8792 HC1   -11.914316   -6.397659   -4.036873 H    1415 MOH     0.0372 ****
8793 C1    -11.866973   -5.674243   -3.222286 C    1415 MOH     0.1166 ****
8794 HC2   -12.660252   -4.946745   -3.393406 H    1415 MOH     0.0372 ****
8795 HC3   -10.906262   -5.160667   -3.268955 H    1415 MOH     0.0372 ****
8796 O1    -12.052302   -6.316009   -1.928280 O    1415 MOH    -0.6497 ****
8797 HO1   -12.243983   -5.640358   -1.272792 H    1415 MOH     0.4215 ****
8798 HC1   -28.234853   -2.554818   -5.458865 H    1416 MOH     0.0372 ****
8799 C1    -28.192129   -2.313135   -4.396790 C    1416 MOH     0.1166 ****
8800 HC2   -27.155208   -2.375189   -4.065864 H    1416 MOH     0.0372 ****
8801 HC3   -28.789687   -3.014914   -3.814841 H    1416 MOH     0.0372 ****
8802 O1    -28.625719   -1.019396   -4.127383 O    1416 MOH    -0.6497 ****
8803 HO1   -29.395327   -0.827928   -4.668319 H    1416 MOH     0.4215 ****
8804 HC1   -17.249032    6.941037    0.025456 H    1417 MOH     0.0372 ****
8805 C1    -17.914717    7.799992    0.110308 C    1417 MOH     0.1166 ****
8806 HC2   -18.956834    7.479925    0.103237 H    1417 MOH     0.0372 ****
8807 HC3   -17.779617    8.424612   -0.772161 H    1417 MOH     0.0372 ****
8808 O1    -17.688973    8.596893    1.313804 O    1417 MOH    -0.6497 ****
8809 HO1   -17.761719    8.029836    2.083843 H    1417 MOH     0.4215 ****
8810 HC1   -17.174554   -3.713018    8.975306 H    1418 MOH     0.0372 ****
8811 C1    -16.874909   -4.760175    8.960457 C    1418 MOH     0.1166 ****
8812 HC2   -16.240979   -4.948786    8.093544 H    1418 MOH     0.0372 ****
8813 HC3   -17.742667   -5.414189    8.881261 H    1418 MOH     0.0372 ****
8814 O1    -16.169965   -5.071260   10.154053 O    1418 MOH    -0.6497 ****
8815 HO1   -15.735797   -5.919600   10.035259 H    1418 MOH     0.4215 ****
8816 HC1   -24.925481   -0.445399   -5.072077 H    1419 MOH     0.0372 ****
8817 C1    -25.465881    0.424170   -5.445430 C    1419 MOH     0.1166 ****
8818 HC2   -25.909286    0.094714   -6.385174 H    1419 MOH     0.0372 ****
8819 HC3   -24.743039    1.227194   -5.591801 H    1419 MOH     0.0372 ****
8820 O1    -26.457192    0.762608   -4.451945 O    1419 MOH    -0.6497 ****
8821 HO1   -27.092854    0.048582   -4.369213 H    1419 MOH     0.4215 ****
8822 HC1   -26.482018   -7.217422   -9.381186 H    1420 MOH     0.0372 ****
8823 C1    -26.069212   -6.209865   -9.417955 C    1420 MOH     0.1166 ****
8824 HC2   -26.154660   -5.739155   -8.438613 H    1420 MOH     0.0372 ****
8825 HC3   -26.645985   -5.621987  -10.132133 H    1420 MOH     0.0372 ****
8826 O1    -24.729759   -6.265387   -9.849291 O    1420 MOH    -0.6497 ****
8827 HO1   -24.696273   -6.925932  -10.545084 H    1420 MOH     0.4215 ****
8828 HC1   -20.308411   11.194985    2.759130 H    1421 MOH     0.0372 ****
8829 C1    -20.762786   11.493006    1.814436 C    1421 MOH     0.1166 ****
8830 HC2   -21.843586   11.358284    1.862519 H    1421 MOH     0.0372 ****
8831 HC3   -20.340165   10.868386    1.026719 H    1421 MOH     0.0372 ****
8832 O1    -20.481039   12.850431    1.554928 O    1421 MOH    -0.6497 ****
8833 HO1   -20.750662   13.044758    0.654073 H    1421 MOH     0.4215 ****
8834 HC1   -19.267449   14.108653    5.882421 H    1422 MOH     0.0372 ****
8835 C1    -19.609240   13.439126    5.093290 C    1422 MOH     0.1166 ****
8836 HC2   -20.107493   12.563025    5.509069 H    1422 MOH     0.0372 ****
8837 HC3   -18.736864   13.121100    4.522655 H    1422 MOH     0.0372 ****
8838 O1    -20.390395   14.169073    4.171223 O    1422 MOH    -0.6497 ****
8839 HO1   -20.363259   13.682033    3.344615 H    1422 MOH     0.4215 ****
8840 HC1   -16.500786   -2.597276    1.551392 H    1423 MOH     0.0372 ****
8841 C1    -16.641082   -2.751593    0.482247 C    1423 MOH     0.1166 ****
8842 HC2   -16.837381   -1.797109   -0.007071 H    1423 MOH     0.0372 ****
8843 HC3   -17.475353   -3.430510    0.306177 H    1423 MOH     0.0372 ****
8844 O1    -15.465597   -3.305995   -0.069297 O    1423 MOH    -0.6497 ****
8845 HO1   -14.818965   -3.406832    0.632860 H    1423 MOH     0.4215 ****
8846 HC1   -13.737588    5.439092    2.841862 H    1424 MOH     0.0372 ****
8847 C1    -13.254923    4.473177    2.694784 C    1424 MOH     0.1166 ****
8848 HC2   -14.027995    3.719142    2.546998 H    1424 MOH     0.0372 ****
8849 HC3   -12.690274    4.230677    3.594224 H    1424 MOH     0.0372 ****
8850 O1    -12.346751    4.500937    1.571898 O    1424 MOH    -0.6497 ****
8851 HO1   -11.635455    5.105145    1.801001 H    1424 MOH     0.4215 ****
8852 HC1   -19.044591   -2.803441   -5.817368 H    1425 MOH     0.0372 ****
8853 C1    -19.205672   -3.816305   -5.448965 C    1425 MOH     0.1166 ****
8854 HC2   -19.956805   -3.771398   -4.661248 H    1425 MOH     0.0372 ****
8855 HC3   -18.280757   -4.216797   -5.033893 H    1425 MOH     0.0372 ****
8856 O1    -19.657160   -4.663012   -6.505383 O    1425 MOH    -0.6497 ****
8857 HO1   -19.252437   -5.521150   -6.355476 H    1425 MOH     0.4215 ****
8858 HC1   -11.172998    8.710794   10.977833 H    1426 MOH     0.0372 ****
8859 C1    -11.884294    7.884908   10.967226 C    1426 MOH     0.1166 ****
8860 HC2   -11.522295    7.153735   10.243856 H    1426 MOH     0.0372 ****
8861 HC3   -12.873295    8.257230   10.697111 H    1426 MOH     0.0372 ****
8862 O1    -11.947802    7.311319   12.252039 O    1426 MOH    -0.6497 ****
8863 HO1   -12.223775    7.995135   12.866515 H    1426 MOH     0.4215 ****
8864 HC1   -15.243317   10.240500   -6.030207 H    1427 MOH     0.0372 ****
8865 C1    -15.824132   10.621804   -5.190164 C    1427 MOH     0.1166 ****
8866 HC2   -15.526796   11.628953   -4.898129 H    1427 MOH     0.0372 ****
8867 HC3   -15.616286    9.966565   -4.343757 H    1427 MOH     0.0372 ****
8868 O1    -17.203421   10.578121   -5.475128 O    1427 MOH    -0.6497 ****
8869 HO1   -17.608721    9.903287   -4.925706 H    1427 MOH     0.4215 ****
8870 HC1   -26.665615   -0.116351    4.995709 H    1428 MOH     0.0372 ****
8871 C1    -27.057059   -0.885491    4.331029 C    1428 MOH     0.1166 ****
8872 HC2   -26.557651   -0.851606    3.363000 H    1428 MOH     0.0372 ****
8873 HC3   -28.128621   -0.723008    4.206578 H    1428 MOH     0.0372 ****
8874 O1    -26.916185   -2.152285    4.915806 O    1428 MOH    -0.6497 ****
8875 HO1   -27.362477   -2.152693    5.765041 H    1428 MOH     0.4215 ****
8876 HC1   -10.445537   -2.548286    0.615183 H    1429 MOH     0.0372 ****
8877 C1    -10.462280   -3.555434    0.197283 C    1429 MOH     0.1166 ****
8878 HC2    -9.960562   -4.213939    0.905097 H    1429 MOH     0.0372 ****
8879 HC3    -9.910910   -3.584012   -0.743169 H    1429 MOH     0.0372 ****
8880 O1    -11.805196   -3.991035    0.048083 O    1429 MOH    -0.6497 ****
8881 HO1   -12.297099   -3.730165    0.830850 H    1429 MOH     0.4215 ****
8882 HC1   -16.310838    1.242708   -0.253144 H    1430 MOH     0.0372 ****
8883 C1    -17.374317    1.443566   -0.384666 C    1430 MOH     0.1166 ****
8884 HC2   -17.956286    0.522558   -0.357796 H    1430 MOH     0.0372 ****
8885 HC3   -17.539439    1.914276   -1.354110 H    1430 MOH     0.0372 ****
8886 O1    -17.824650    2.333955    0.594677 O    1430 MOH    -0.6497 ****
8887 HO1   -17.714376    3.228427    0.264458 H    1430 MOH     0.4215 ****
8888 HC1   -12.597898    4.170256   -3.049752 H    1431 MOH     0.0372 ****
8889 C1    -13.002043    4.516043   -4.000810 C    1431 MOH     0.1166 ****
8890 HC2   -13.935042    3.992668   -4.212942 H    1431 MOH     0.0372 ****
8891 HC3   -12.280933    4.371114   -4.804791 H    1431 MOH     0.0372 ****
8892 O1    -13.248572    5.882041   -3.846661 O    1431 MOH    -0.6497 ****
8893 HO1   -12.424116    6.337646   -3.658571 H    1431 MOH     0.4215 ****
8894 HC1   -16.830453   -7.085557    2.153847 H    1432 MOH     0.0372 ****
8895 C1    -17.016360   -6.499721    1.253700 C    1432 MOH     0.1166 ****
8896 HC2   -16.998462   -7.123524    0.359917 H    1432 MOH     0.0372 ****
8897 HC3   -16.268691   -5.714251    1.144806 H    1432 MOH     0.0372 ****
8898 O1    -18.258818   -5.911435    1.383101 O    1432 MOH    -0.6497 ****
8899 HO1   -18.557308   -5.800800    0.477297 H    1432 MOH     0.4215 ****
8900 HC1   -15.645730   -3.510527    3.573010 H    1433 MOH     0.0372 ****
8901 C1    -14.891711   -4.264153    3.345322 C    1433 MOH     0.1166 ****
8902 HC2   -15.377840   -5.153726    2.945807 H    1433 MOH     0.0372 ****
8903 HC3   -14.402695   -4.553601    4.275167 H    1433 MOH     0.0372 ****
8904 O1    -13.957558   -3.722000    2.400627 O    1433 MOH    -0.6497 ****
8905 HO1   -13.741052   -2.824262    2.660136 H    1433 MOH     0.4215 ****
8906 HC1   -17.400298    4.842233   -5.513312 H    1434 MOH     0.0372 ****
8907 C1    -17.637589    4.555643   -4.488007 C    1434 MOH     0.1166 ****
8908 HC2   -16.875486    3.893056   -4.078592 H    1434 MOH     0.0372 ****
8909 HC3   -18.590794    4.026961   -4.507099 H    1434 MOH     0.0372 ****
8910 O1    -17.739202    5.682000   -3.650085 O    1434 MOH    -0.6497 ****
8911 HO1   -16.965553    6.238442   -3.769586 H    1434 MOH     0.4215 ****
8912 HC1   -19.709122  -10.140071    0.838629 H    1435 MOH     0.0372 ****
8913 C1    -20.116154   -9.139454    0.693672 C    1435 MOH     0.1166 ****
8914 HC2   -21.161735   -9.185178    0.388201 H    1435 MOH     0.0372 ****
8915 HC3   -19.559588   -8.681808   -0.123037 H    1435 MOH     0.0372 ****
8916 O1    -19.961424   -8.315609    1.850498 O    1435 MOH    -0.6497 ****
8917 HO1   -19.678522   -7.435426    1.590283 H    1435 MOH     0.4215 ****
8918 HC1   -20.303215   -5.734664    3.061065 H    1436 MOH     0.0372 ****
8919 C1    -20.214880   -4.748744    3.517149 C    1436 MOH     0.1166 ****
8920 HC2   -20.815902   -4.716901    4.425074 H    1436 MOH     0.0372 ****
8921 HC3   -20.567064   -4.013489    2.793779 H    1436 MOH     0.0372 ****
8922 O1    -18.874851   -4.545028    3.824740 O    1436 MOH    -0.6497 ****
8923 HO1   -18.389876   -5.011656    3.140968 H    1436 MOH     0.4215 ****
8924 HC1   -10.358357    6.057588   -4.716402 H    1437 MOH     0.0372 ****
8925 C1     -9.938046    6.941037   -4.235570 C    1437 MOH     0.1166 ****
8926 HC2    -9.684589    7.682825   -4.992881 H    1437 MOH     0.0372 ****
8927 HC3    -9.051236    6.658121   -3.669177 H    1437 MOH     0.0372 ****
8928 O1    -10.943212    7.437467   -3.412497 O    1437 MOH    -0.6497 ****
8929 HO1   -10.586987    7.633835   -2.543463 H    1437 MOH     0.4215 ****
8930 HC1   -16.007152    8.365416    7.859492 H    1438 MOH     0.0372 ****
8931 C1    -16.049876    9.239475    7.209661 C    1438 MOH     0.1166 ****
8932 HC2   -15.249091    9.939621    7.447956 H    1438 MOH     0.0372 ****
8933 HC3   -16.989225    9.755501    7.404822 H    1438 MOH     0.0372 ****
8934 O1    -16.049298    8.885116    5.818074 O    1438 MOH    -0.6497 ****
8935 HO1   -15.940179    9.677526    5.287037 H    1438 MOH     0.4215 ****
8936 HC1   -18.339647  -10.571998    3.874945 H    1439 MOH     0.0372 ****
8937 C1    -17.263466  -10.563833    3.705239 C    1439 MOH     0.1166 ****
8938 HC2   -16.843155   -9.703654    4.224963 H    1439 MOH     0.0372 ****
8939 HC3   -17.059661  -10.503412    2.636094 H    1439 MOH     0.0372 ****
8940 O1    -16.669950  -11.708561    4.205871 O    1439 MOH    -0.6497 ****
8941 HO1   -17.131830  -11.969840    5.004902 H    1439 MOH     0.4215 ****
8942 HC1   -21.693474    4.095955   -3.526342 H    1440 MOH     0.0372 ****
8943 C1    -22.276021    3.223120   -3.230771 C    1440 MOH     0.1166 ****
8944 HC2   -21.940003    2.308236   -3.717968 H    1440 MOH     0.0372 ****
8945 HC3   -23.296199    3.403158   -3.568061 H    1440 MOH     0.0372 ****
8946 O1    -22.282949    3.076151   -1.827871 O    1440 MOH    -0.6497 ****
8947 HO1   -22.469433    3.937963   -1.446741 H    1440 MOH     0.4215 ****
8948 HC1   -22.524282    1.081450    0.744583 H    1441 MOH     0.0372 ****
8949 C1    -21.492557    0.797717    0.538815 C    1441 MOH     0.1166 ****
8950 HC2   -21.221779   -0.028169    1.195717 H    1441 MOH     0.0372 ****
8951 HC3   -20.844192    1.648507    0.749533 H    1441 MOH     0.0372 ****
8952 O1    -21.354570    0.478467   -0.823072 O    1441 MOH    -0.6497 ****
8953 HO1   -21.651328    1.271285   -1.275621 H    1441 MOH     0.4215 ****
8954 HC1   -17.030216    0.353951   -4.941969 H    1442 MOH     0.0372 ****
8955 C1    -17.015783    1.061446   -5.771406 C    1442 MOH     0.1166 ****
8956 HC2   -18.006516    1.492556   -5.912827 H    1442 MOH     0.0372 ****
8957 HC3   -16.676878    0.568282   -6.682159 H    1442 MOH     0.0372 ****
8958 O1    -16.138787    2.113093   -5.464521 O    1442 MOH    -0.6497 ****
8959 HO1   -15.942488    2.120033   -4.524776 H    1442 MOH     0.4215 ****
8960 HC1   -21.173859   -7.393376    8.936415 H    1443 MOH     0.0372 ****
8961 C1    -20.181394   -7.372556    8.485988 C    1443 MOH     0.1166 ****
8962 HC2   -19.658315   -6.461346    8.775902 H    1443 MOH     0.0372 ****
8963 HC3   -20.241439   -7.428078    7.399872 H    1443 MOH     0.0372 ****
8964 O1    -19.446427   -8.437267    8.934294 O    1443 MOH    -0.6497 ****
8965 HO1   -19.893296   -9.233352    8.638723 H    1443 MOH     0.4215 ****
8966 HC1   -23.233845    4.836109    1.941715 H    1444 MOH     0.0372 ****
8967 C1    -23.473445    4.203324    2.795900 C    1444 MOH     0.1166 ****
8968 HC2   -24.519027    4.327840    3.076621 H    1444 MOH     0.0372 ****
8969 HC3   -22.841247    4.510735    3.629579 H    1444 MOH     0.0372 ****
8970 O1    -23.171491    2.853247    2.479823 O    1444 MOH    -0.6497 ****
8971 HO1   -23.633949    2.580129    1.684328 H    1444 MOH     0.4215 ****
8972 HC1   -25.827302   -3.102279   -7.158042 H    1445 MOH     0.0372 ****
8973 C1    -25.039219   -3.067986   -7.910404 C    1445 MOH     0.1166 ****
8974 HC2   -25.459530   -2.676476   -8.837421 H    1445 MOH     0.0372 ****
8975 HC3   -24.641425   -4.065745   -8.097080 H    1445 MOH     0.0372 ****
8976 O1    -24.032898   -2.167798   -7.560386 O    1445 MOH    -0.6497 ****
8977 HO1   -23.205555   -2.632793   -7.703929 H    1445 MOH     0.4215 ****
8978 HC1   -22.623586   -3.722816   -9.876161 H    1446 MOH     0.0372 ****
8979 C1    -22.193460   -4.292731   -9.051674 C    1446 MOH     0.1166 ****
8980 HC2   -21.418078   -4.936538   -9.466746 H    1446 MOH     0.0372 ****
8981 HC3   -22.938819   -4.941437   -8.591348 H    1446 MOH     0.0372 ****
8982 O1    -21.624192   -3.398259   -8.111929 O    1446 MOH    -0.6497 ****
8983 HO1   -21.209655   -3.937555   -7.435228 H    1446 MOH     0.4215 ****
8984 HC1   -12.276314    4.992468   -7.590791 H    1447 MOH     0.0372 ****
8985 C1    -11.532687    4.471543   -8.193246 C    1447 MOH     0.1166 ****
8986 HC2   -10.617009    5.061054   -8.241330 H    1447 MOH     0.0372 ****
8987 HC3   -11.868705    4.350294   -9.223501 H    1447 MOH     0.0372 ****
8988 O1    -11.194360    3.242716   -7.609176 O    1447 MOH    -0.6497 ****
8989 HO1   -11.898150    2.971231   -7.015914 H    1447 MOH     0.4215 ****
8990 HC1   -11.560400   -0.684632   -2.930958 H    1448 MOH     0.0372 ****
8991 C1    -11.599660   -1.754243   -3.136019 C    1448 MOH     0.1166 ****
8992 HC2   -12.377928   -2.182495   -2.504572 H    1448 MOH     0.0372 ****
8993 HC3   -10.630866   -2.190660   -2.892067 H    1448 MOH     0.0372 ****
8994 O1    -11.888335   -2.046140   -4.504270 O    1448 MOH    -0.6497 ****
8995 HO1   -11.458786   -2.860596   -4.776506 H    1448 MOH     0.4215 ****
8996 HC1    -7.398859   -2.004499   -5.177436 H    1449 MOH     0.0372 ****
8997 C1     -7.921361   -1.075326   -4.949748 C    1449 MOH     0.1166 ****
8998 HC2    -8.953663   -1.288432   -4.671147 H    1449 MOH     0.0372 ****
8999 HC3    -7.880947   -0.429069   -5.825853 H    1449 MOH     0.0372 ****
9000 O1     -7.233737   -0.511943   -3.883431 O    1449 MOH    -0.6497 ****
9001 HO1    -6.771279   -1.227194   -3.440782 H    1449 MOH     0.4215 ****
9002 HC1   -12.525730    0.140029   -5.558567 H    1450 MOH     0.0372 ****
9003 C1    -13.462769    0.396001   -6.051420 C    1450 MOH     0.1166 ****
9004 HC2   -14.301082    0.064095   -5.438358 H    1450 MOH     0.0372 ****
9005 HC3   -13.481244   -0.102879   -7.020156 H    1450 MOH     0.0372 ****
9006 O1    -13.493369    1.779554   -6.268502 O    1450 MOH    -0.6497 ****
9007 HO1   -14.409623    2.020829   -6.420530 H    1450 MOH     0.4215 ****
9008 HC1   -22.472320   -0.562158    3.683319 H    1451 MOH     0.0372 ****
9009 C1    -23.482106   -0.162891    3.775243 C    1451 MOH     0.1166 ****
9010 HC2   -24.094674   -0.904270    4.288602 H    1451 MOH     0.0372 ****
9011 HC3   -23.883364    0.028986    2.779637 H    1451 MOH     0.0372 ****
9012 O1    -23.413978    1.025928    4.537504 O    1451 MOH    -0.6497 ****
9013 HO1   -23.079693    1.719134    3.963333 H    1451 MOH     0.4215 ****
9014 HC1   -15.855308   -4.569931   -7.266229 H    1452 MOH     0.0372 ****
9015 C1    -15.549890   -5.550136   -7.633218 C    1452 MOH     0.1166 ****
9016 HC2   -14.600726   -5.470527   -8.162841 H    1452 MOH     0.0372 ****
9017 HC3   -16.316611   -5.942462   -8.300020 H    1452 MOH     0.0372 ****
9018 O1    -15.396315   -6.470735   -6.559123 O    1452 MOH    -0.6497 ****
9019 HO1   -14.547033   -6.904703   -6.667310 H    1452 MOH     0.4215 ****
9020 HC1   -10.014256   -7.218238   -0.593263 H    1453 MOH     0.0372 ****
9021 C1     -9.143034   -6.714868   -1.012577 C    1453 MOH     0.1166 ****
9022 HC2    -9.440947   -5.765691   -1.455933 H    1453 MOH     0.0372 ****
9023 HC3    -8.704248   -7.326424   -1.801708 H    1453 MOH     0.0372 ****
9024 O1     -8.174241   -6.439709   -0.026870 O    1453 MOH    -0.6497 ****
9025 HO1    -7.744115   -7.277842    0.156271 H    1453 MOH     0.4215 ****
9026 HC1   -26.728546    6.674043    2.107178 H    1454 MOH     0.0372 ****
9027 C1    -25.865985    7.136997    1.627760 C    1454 MOH     0.1166 ****
9028 HC2   -25.079056    7.251714    2.373757 H    1454 MOH     0.0372 ****
9029 HC3   -26.182950    8.129040    1.305319 H    1454 MOH     0.0372 ****
9030 O1    -25.483202    6.349486    0.468812 O    1454 MOH    -0.6497 ****
9031 HO1   -26.177177    6.395618   -0.192333 H    1454 MOH     0.4215 ****
9032 HC1   -20.042253    2.111460    8.367901 H    1455 MOH     0.0372 ****
9033 C1    -19.434303    2.982254    8.119707 C    1455 MOH     0.1166 ****
9034 HC2   -18.384680    2.712810    8.005156 H    1455 MOH     0.0372 ****
9035 HC3   -19.490883    3.704445    8.935001 H    1455 MOH     0.0372 ****
9036 O1    -19.829211    3.544412    6.909847 O    1455 MOH    -0.6497 ****
9037 HO1   -19.547464    2.945920    6.214054 H    1455 MOH     0.4215 ****
9038 HC1   -18.569432   -0.894472  -12.341135 H    1456 MOH     0.0372 ****
9039 C1    -17.645672   -0.706270  -12.889143 C    1456 MOH     0.1166 ****
9040 HC2   -17.055042   -1.621154  -12.851666 H    1456 MOH     0.0372 ****
9041 HC3   -17.123170    0.117167  -12.401946 H    1456 MOH     0.0372 ****
9042 O1    -17.918758   -0.353951  -14.243252 O    1456 MOH    -0.6497 ****
9043 HO1   -17.137026    0.068177  -14.606705 H    1456 MOH     0.4215 ****
9044 HC1   -14.461585    8.361333   -2.320018 H    1457 MOH     0.0372 ****
9045 C1    -15.476567    7.977988   -2.423962 C    1457 MOH     0.1166 ****
9046 HC2   -16.197677    8.795301   -2.402749 H    1457 MOH     0.0372 ****
9047 HC3   -15.711548    7.283149   -1.617861 H    1457 MOH     0.0372 ****
9048 O1    -15.604161    7.266003   -3.606245 O    1457 MOH    -0.6497 ****
9049 HO1   -14.883628    6.632810   -3.638065 H    1457 MOH     0.4215 ****
9050 HC1   -20.982756   -5.632602   -1.430477 H    1458 MOH     0.0372 ****
9051 C1    -20.125968   -5.890615   -2.054145 C    1458 MOH     0.1166 ****
9052 HC2   -19.940062   -5.097388   -2.777516 H    1458 MOH     0.0372 ****
9053 HC3   -20.371920   -6.794476   -2.611345 H    1458 MOH     0.0372 ****
9054 O1    -18.962608   -6.081267   -1.252993 O    1458 MOH    -0.6497 ****
9055 HO1   -18.266323   -6.429094   -1.814436 H    1458 MOH     0.4215 ****
9056 HC1   -14.928084   -5.972673   -2.247185 H    1459 MOH     0.0372 ****
9057 C1    -15.426337   -6.748344   -2.827013 C    1459 MOH     0.1166 ****
9058 HC2   -14.699453   -7.493806   -3.149454 H    1459 MOH     0.0372 ****
9059 HC3   -15.888795   -6.274368   -3.693219 H    1459 MOH     0.0372 ****
9060 O1    -16.401482   -7.379088   -2.030104 O    1459 MOH    -0.6497 ****
9061 HO1   -15.929787   -7.748144   -1.280570 H    1459 MOH     0.4215 ****
9062 HC1   -11.587535    0.079200    4.939848 H    1460 MOH     0.0372 ****
9063 C1    -12.209919    0.973672    4.930655 C    1460 MOH     0.1166 ****
9064 HC2   -11.765937    1.760775    5.540182 H    1460 MOH     0.0372 ****
9065 HC3   -13.181600    0.695655    5.340070 H    1460 MOH     0.0372 ****
9066 O1    -12.389475    1.426420    3.609073 O    1460 MOH    -0.6497 ****
9067 HO1   -11.532110    1.701987    3.276026 H    1460 MOH     0.4215 ****
9068 HC1   -15.603584    5.726090   -6.540738 H    1461 MOH     0.0372 ****
9069 C1    -15.010645    5.387653   -7.389973 C    1461 MOH     0.1166 ****
9070 HC2   -14.643450    4.391935   -7.141779 H    1461 MOH     0.0372 ****
9071 HC3   -14.163672    6.057588   -7.542001 H    1461 MOH     0.0372 ****
9072 O1    -15.814894    5.336622   -8.560235 O    1461 MOH    -0.6497 ****
9073 HO1   -15.407862    4.686282   -9.137941 H    1461 MOH     0.4215 ****
9074 HC1   -19.847108    6.046974   -0.878227 H    1462 MOH     0.0372 ****
9075 C1    -19.665820    5.008798   -0.598920 C    1462 MOH     0.1166 ****
9076 HC2   -20.325154    4.371523   -1.187940 H    1462 MOH     0.0372 ****
9077 HC3   -19.890410    4.854072    0.456791 H    1462 MOH     0.0372 ****
9078 O1    -18.335605    4.613206   -0.840043 O    1462 MOH    -0.6497 ****
9079 HO1   -18.156049    4.721391   -1.776960 H    1462 MOH     0.4215 ****
9080 HC1   -15.958654    0.258829    2.780344 H    1463 MOH     0.0372 ****
9081 C1    -15.504857    1.138196    3.237135 C    1463 MOH     0.1166 ****
9082 HC2   -14.667699    1.454997    2.614881 H    1463 MOH     0.0372 ****
9083 HC3   -15.201171    0.889165    4.253954 H    1463 MOH     0.0372 ****
9084 O1    -16.455176    2.135955    3.201779 O    1463 MOH    -0.6497 ****
9085 HO1   -16.783110    2.191477    2.300925 H    1463 MOH     0.4215 ****
9086 HC1   -24.125851   11.731423    0.451134 H    1464 MOH     0.0372 ****
9087 C1    -25.033446   11.667736    1.050760 C    1464 MOH     0.1166 ****
9088 HC2   -25.644282   10.821029    0.738219 H    1464 MOH     0.0372 ****
9089 HC3   -25.582506   12.599767    0.918531 H    1464 MOH     0.0372 ****
9090 O1    -24.661632   11.484433    2.375171 O    1464 MOH    -0.6497 ****
9091 HO1   -24.134511   10.681817    2.373757 H    1464 MOH     0.4215 ****
9092 HC1    -8.595706    3.577888    8.157184 H    1465 MOH     0.0372 ****
9093 C1     -8.848586    4.442558    8.770952 C    1465 MOH     0.1166 ****
9094 HC2    -8.040873    4.625861    9.478766 H    1465 MOH     0.0372 ****
9095 HC3    -9.766573    4.209856    9.309768 H    1465 MOH     0.0372 ****
9096 O1     -9.040843    5.550952    7.914646 O    1465 MOH    -0.6497 ****
9097 HO1    -9.726158    5.279875    7.299463 H    1465 MOH     0.4215 ****
9098 HC1   -16.589121   -2.340079   -4.572153 H    1466 MOH     0.0372 ****
9099 C1    -15.661896   -2.516851   -4.028387 C    1466 MOH     0.1166 ****
9100 HC2   -15.727714   -3.441533   -3.454924 H    1466 MOH     0.0372 ****
9101 HC3   -15.438462   -1.680350   -3.365828 H    1466 MOH     0.0372 ****
9102 O1    -14.658461   -2.618913   -4.958940 O    1466 MOH    -0.6497 ****
9103 HO1   -13.848439   -2.278025   -4.572153 H    1466 MOH     0.4215 ****
9104 HC1   -18.686057   -2.195968   -9.845048 H    1467 MOH     0.0372 ****
9105 C1    -18.406042   -3.104320   -9.311182 C    1467 MOH     0.1166 ****
9106 HC2   -17.597752   -3.599933   -9.848583 H    1467 MOH     0.0372 ****
9107 HC3   -19.236849   -3.810181   -9.287848 H    1467 MOH     0.0372 ****
9108 O1    -17.968410   -2.843041   -7.991721 O    1467 MOH    -0.6497 ****
9109 HO1   -18.315975   -3.547678   -7.440178 H    1467 MOH     0.4215 ****
9110 HC1    -7.502205   -2.723833    3.558161 H    1468 MOH     0.0372 ****
9111 C1     -8.333589   -2.040425    3.388456 C    1468 MOH     0.1166 ****
9112 HC2    -9.255618   -2.500521    3.745545 H    1468 MOH     0.0372 ****
9113 HC3    -8.404026   -1.852222    2.317189 H    1468 MOH     0.0372 ****
9114 O1     -8.005654   -0.819763    4.040408 O    1468 MOH    -0.6497 ****
9115 HO1    -7.392508   -1.016946    4.752465 H    1468 MOH     0.4215 ****
9116 HC1    -7.742383    0.102470   -0.419314 H    1469 MOH     0.0372 ****
9117 C1     -8.752168   -0.218413   -0.675287 C    1469 MOH     0.1166 ****
9118 HC2    -9.449607    0.212289    0.043841 H    1469 MOH     0.0372 ****
9119 HC3    -8.833575   -1.304762   -0.640639 H    1469 MOH     0.0372 ****
9120 O1     -9.107239    0.240866   -1.947372 O    1469 MOH    -0.6497 ****
9121 HO1    -8.508526   -0.166565   -2.576697 H    1469 MOH     0.4215 ****
9122 HC1   -19.096553   -1.326399    7.077432 H    1470 MOH     0.0372 ****
9123 C1    -18.751298   -2.169431    6.479926 C    1470 MOH     0.1166 ****
9124 HC2   -18.011135   -2.701379    7.078846 H    1470 MOH     0.0372 ****
9125 HC3   -18.309625   -1.783637    5.561395 H    1470 MOH     0.0372 ****
9126 O1    -19.803807   -3.087174    6.146172 O    1470 MOH    -0.6497 ****
9127 HO1   -19.524947   -3.600342    5.384618 H    1470 MOH     0.4215 ****
9128 HC1   -11.939142    7.210890    0.854892 H    1471 MOH     0.0372 ****
9129 C1    -12.431621    7.647307   -0.014142 C    1471 MOH     0.1166 ****
9130 HC2   -13.373857    8.134755    0.236173 H    1471 MOH     0.0372 ****
9131 HC3   -12.683924    6.812847   -0.668923 H    1471 MOH     0.0372 ****
9132 O1    -11.593886    8.572398   -0.714178 O    1471 MOH    -0.6497 ****
9133 HO1   -12.134863    9.272135   -1.086116 H    1471 MOH     0.4215 ****
9134 HC1    -5.598104   -4.189036   -1.484217 H    1472 MOH     0.0372 ****
9135 C1     -6.503966   -3.864478   -1.995455 C    1472 MOH     0.1166 ****
9136 HC2    -7.389622   -4.257213   -1.496238 H    1472 MOH     0.0372 ****
9137 HC3    -6.496461   -4.212714   -3.028538 H    1472 MOH     0.0372 ****
9138 O1     -6.596920   -2.472352   -1.981313 O    1472 MOH    -0.6497 ****
9139 HO1    -6.326720   -2.186986   -1.105208 H    1472 MOH     0.4215 ****
9140 HC1   -13.063820    0.374772    0.500631 H    1473 MOH     0.0372 ****
9141 C1    -12.400445   -0.447032    0.770039 C    1473 MOH     0.1166 ****
9142 HC2   -11.384308   -0.060829    0.847821 H    1473 MOH     0.0372 ****
9143 HC3   -12.414301   -1.229644    0.011314 H    1473 MOH     0.0372 ****
9144 O1    -12.778609   -0.874060    2.056974 O    1473 MOH    -0.6497 ****
9145 HO1   -12.724915   -0.104920    2.628316 H    1473 MOH     0.4215 ****
9146 HC1    -9.283908    6.574022    4.603972 H    1474 MOH     0.0372 ****
9147 C1     -9.623390    5.828153    3.884845 C    1474 MOH     0.1166 ****
9148 HC2   -10.129726    4.990835    4.366384 H    1474 MOH     0.0372 ****
9149 HC3    -8.736580    5.431335    3.389870 H    1474 MOH     0.0372 ****
9150 O1    -10.464589    6.448690    2.930250 O    1474 MOH    -0.6497 ****
9151 HO1    -9.935159    7.133731    2.514472 H    1474 MOH     0.4215 ****
9152 HC1   -18.577515   -0.662179   -4.376991 H    1475 MOH     0.0372 ****
9153 C1    -19.207982   -0.975713   -3.545434 C    1475 MOH     0.1166 ****
9154 HC2   -20.184281   -1.288432   -3.915958 H    1475 MOH     0.0372 ****
9155 HC3   -19.378300   -0.148602   -2.855297 H    1475 MOH     0.0372 ****
9156 O1    -18.605805   -2.029811   -2.849640 O    1475 MOH    -0.6497 ****
9157 HO1   -19.256479   -2.384170   -2.240114 H    1475 MOH     0.4215 ****
9158 HC1   -15.915353    4.070235   -1.233194 H    1476 MOH     0.0372 ****
9159 C1    -15.258906    4.345803   -0.408001 C    1476 MOH     0.1166 ****
9160 HC2   -15.805656    4.309877    0.535280 H    1476 MOH     0.0372 ****
9161 HC3   -14.912496    5.368465   -0.558615 H    1476 MOH     0.0372 ****
9162 O1    -14.140001    3.473785   -0.342947 O    1476 MOH    -0.6497 ****
9163 HO1   -13.534938    3.800383    0.327390 H    1476 MOH     0.4215 ****
9164 HC1   -12.138905    8.785095    6.534374 H    1477 MOH     0.0372 ****
9165 C1    -12.450674    8.366232    7.491796 C    1477 MOH     0.1166 ****
9166 HC2   -12.977795    9.112510    8.084352 H    1477 MOH     0.0372 ****
9167 HC3   -11.558091    8.032693    8.020005 H    1477 MOH     0.0372 ****
9168 O1    -13.265315    7.252123    7.264815 O    1477 MOH    -0.6497 ****
9169 HO1   -13.951207    7.493397    6.639025 H    1477 MOH     0.4215 ****
9170 HC1   -19.459129   14.179280   -1.185111 H    1478 MOH     0.0372 ****
9171 C1    -20.366724   14.558951   -1.654630 C    1478 MOH     0.1166 ****
9172 HC2   -20.236242   14.538946   -2.737211 H    1478 MOH     0.0372 ****
9173 HC3   -20.509906   15.589777   -1.332897 H    1478 MOH     0.0372 ****
9174 O1    -21.506990   13.765724   -1.280571 O    1478 MOH    -0.6497 ****
9175 HO1   -22.280062   14.270727   -1.542907 H    1478 MOH     0.4215 ****
9176 HC1   -26.577280   -5.997576   -1.180161 H    1479 MOH     0.0372 ****
9177 C1    -25.933535   -5.213331   -1.576848 C    1479 MOH     0.1166 ****
9178 HC2   -25.899471   -4.411939   -0.839336 H    1479 MOH     0.0372 ****
9179 HC3   -26.332484   -4.773239   -2.491845 H    1479 MOH     0.0372 ****
9180 O1    -24.621795   -5.677917   -1.807365 O    1479 MOH    -0.6497 ****
9181 HO1   -24.179545   -4.890815   -2.132634 H    1479 MOH     0.4215 ****
9182 HC1   -17.301571    5.709352    5.326635 H    1480 MOH     0.0372 ****
9183 C1    -16.719602    5.951852    4.437095 C    1480 MOH     0.1166 ****
9184 HC2   -16.755975    5.130048    3.722210 H    1480 MOH     0.0372 ****
9185 HC3   -15.692496    6.095147    4.774385 H    1480 MOH     0.0372 ****
9186 O1    -17.185524    7.196193    3.905351 O    1480 MOH    -0.6497 ****
9187 HO1   -16.769831    7.873477    4.443459 H    1480 MOH     0.4215 ****
9188 HC1   -19.807271    1.143095    2.998133 H    1481 MOH     0.0372 ****
9189 C1    -19.644458    0.918967    4.052429 C    1481 MOH     0.1166 ****
9190 HC2   -19.076923   -0.007757    4.144353 H    1481 MOH     0.0372 ****
9191 HC3   -20.628263    0.801391    4.506391 H    1481 MOH     0.0372 ****
9192 O1    -18.951638    1.995518    4.644277 O    1481 MOH    -0.6497 ****
9193 HO1   -18.113326    2.086149    4.186072 H    1481 MOH     0.4215 ****
9194 HC1   -21.871876   -4.923066    7.757668 H    1482 MOH     0.0372 ****
9195 C1    -22.265051   -4.488282    8.676200 C    1482 MOH     0.1166 ****
9196 HC2   -22.449226   -3.423570    8.534779 H    1482 MOH     0.0372 ****
9197 HC3   -21.565880   -4.632393    9.499979 H    1482 MOH     0.0372 ****
9198 O1    -23.429567   -5.149236    9.005005 O    1482 MOH    -0.6497 ****
9199 HO1   -23.853919   -4.699754    9.739689 H    1482 MOH     0.4215 ****
9200 HC1   -20.084977    1.038175   -6.337798 H    1483 MOH     0.0372 ****
9201 C1    -20.218344    0.015513   -6.690645 C    1483 MOH     0.1166 ****
9202 HC2   -21.217160   -0.062054   -7.119151 H    1483 MOH     0.0372 ****
9203 HC3   -20.145021   -0.701371   -5.873229 H    1483 MOH     0.0372 ****
9204 O1    -19.298048   -0.261687   -7.702514 O    1483 MOH    -0.6497 ****
9205 HO1   -19.182001   -1.209640   -7.794438 H    1483 MOH     0.4215 ****
9206 HC1   -17.897974   -8.236409   -7.380074 H    1484 MOH     0.0372 ****
9207 C1    -18.634673   -7.890623   -6.655289 C    1484 MOH     0.1166 ****
9208 HC2   -18.905450   -8.698546   -5.974345 H    1484 MOH     0.0372 ****
9209 HC3   -19.543422   -7.590969   -7.175720 H    1484 MOH     0.0372 ****
9210 O1    -18.194732   -6.809173   -5.861208 O    1484 MOH    -0.6497 ****
9211 HO1   -17.247300   -6.877759   -5.725444 H    1484 MOH     0.4215 ****
9212 HC1   -16.949387    8.318875   -7.027935 H    1485 MOH     0.0372 ****
9213 C1    -17.796937    7.654247   -6.858229 C    1485 MOH     0.1166 ****
9214 HC2   -18.662386    8.298055   -6.701958 H    1485 MOH     0.0372 ****
9215 HC3   -17.564265    7.052489   -5.980002 H    1485 MOH     0.0372 ****
9216 O1    -17.930305    6.952468   -8.073745 O    1485 MOH    -0.6497 ****
9217 HO1   -17.084487    6.546670   -8.278806 H    1485 MOH     0.4215 ****
9218 HC1   -19.060757  -10.487082   -1.617860 H    1486 MOH     0.0372 ****
9219 C1    -18.025568  -10.182937   -1.774131 C    1486 MOH     0.1166 ****
9220 HC2   -17.436671  -11.085574   -1.941715 H    1486 MOH     0.0372 ****
9221 HC3   -17.652600   -9.626086   -0.915703 H    1486 MOH     0.0372 ****
9222 O1    -18.027878   -9.451356   -2.950757 O    1486 MOH    -0.6497 ****
9223 HO1   -17.390483   -8.742229   -2.841155 H    1486 MOH     0.4215 ****
9224 HC1    -5.998207   -5.294980    2.952878 H    1487 MOH     0.0372 ****
9225 C1     -5.614270   -4.698121    2.125563 C    1487 MOH     0.1166 ****
9226 HC2    -4.926645   -5.315393    1.547150 H    1487 MOH     0.0372 ****
9227 HC3    -5.113129   -3.836309    2.567505 H    1487 MOH     0.0372 ****
9228 O1     -6.679481   -4.258438    1.338553 O    1487 MOH    -0.6497 ****
9229 HO1    -7.208911   -5.014514    1.076924 H    1487 MOH     0.4215 ****
9230 HC1   -15.531992    3.701179    7.553314 H    1488 MOH     0.0372 ****
9231 C1    -15.468484    2.778130    6.977022 C    1488 MOH     0.1166 ****
9232 HC2   -14.436759    2.574006    6.691351 H    1488 MOH     0.0372 ****
9233 HC3   -16.085671    2.889990    6.086068 H    1488 MOH     0.0372 ****
9234 O1    -15.986367    1.724849    7.742112 O    1488 MOH    -0.6497 ****
9235 HO1   -15.736374    0.900188    7.317848 H    1488 MOH     0.4215 ****
9236 HC1   -27.583025    3.008790   -0.929139 H    1489 MOH     0.0372 ****
9237 C1    -27.749301    4.079217   -0.810345 C    1489 MOH     0.1166 ****
9238 HC2   -27.395963    4.400100    0.169705 H    1489 MOH     0.0372 ****
9239 HC3   -28.816245    4.292323   -0.882470 H    1489 MOH     0.0372 ****
9240 O1    -27.062255    4.793651   -1.820093 O    1489 MOH    -0.6497 ****
9241 HO1   -27.152899    4.263745   -2.614881 H    1489 MOH     0.4215 ****
9242 HC1   -20.919825    9.324799   -3.778072 H    1490 MOH     0.0372 ****
9243 C1    -20.048604    8.669561   -3.797164 C    1490 MOH     0.1166 ****
9244 HC2   -20.049181    8.098013   -4.724888 H    1490 MOH     0.0372 ****
9245 HC3   -20.076316    7.960433   -2.969142 H    1490 MOH     0.0372 ****
9246 O1    -18.870232    9.454214   -3.723625 O    1490 MOH    -0.6497 ****
9247 HO1   -18.899677    9.964933   -2.911159 H    1490 MOH     0.4215 ****
9248 HC1    -6.106172    0.161666    1.688571 H    1491 MOH     0.0372 ****
9249 C1     -5.465890   -0.713618    1.797465 C    1491 MOH     0.1166 ****
9250 HC2    -5.616002   -1.114518    2.800143 H    1491 MOH     0.0372 ****
9251 HC3    -4.427237   -0.400900    1.691399 H    1491 MOH     0.0372 ****
9252 O1     -5.845210   -1.655447    0.794081 O    1491 MOH    -0.6497 ****
9253 HO1    -5.916224   -2.528690    1.186525 H    1491 MOH     0.4215 ****
9254 HC1   -25.105037    2.559717   -1.252993 H    1492 MOH     0.0372 ****
9255 C1    -24.837724    1.555018   -0.924189 C    1492 MOH     0.1166 ****
9256 HC2   -23.893179    1.265570   -1.384515 H    1492 MOH     0.0372 ****
9257 HC3   -25.600404    0.841400   -1.233902 H    1492 MOH     0.0372 ****
9258 O1    -24.670292    1.562774    0.504874 O    1492 MOH    -0.6497 ****
9259 HO1   -25.498790    1.750569    0.951765 H    1492 MOH     0.4215 ****
9260 HC1    -7.970436    2.375189    6.109402 H    1493 MOH     0.0372 ****
9261 C1     -7.111916    2.736897    5.543717 C    1493 MOH     0.1166 ****
9262 HC2    -7.460058    3.256188    4.651348 H    1493 MOH     0.0372 ****
9263 HC3    -6.482604    1.896313    5.250268 H    1493 MOH     0.0372 ****
9264 O1     -6.362515    3.626470    6.339212 O    1493 MOH    -0.6497 ****
9265 HO1    -6.195084    3.208015    7.187033 H    1493 MOH     0.4215 ****
9266 HC1   -13.945434    1.443974   -9.228451 H    1494 MOH     0.0372 ****
9267 C1    -14.869772    1.959183   -9.490080 C    1494 MOH     0.1166 ****
9268 HC2   -15.582799    1.912235   -8.666301 H    1494 MOH     0.0372 ****
9269 HC3   -15.305671    1.512968  -10.383156 H    1494 MOH     0.0372 ****
9270 O1    -14.631903    3.308444   -9.769387 O    1494 MOH    -0.6497 ****
9271 HO1   -14.127299    3.338654  -10.585389 H    1494 MOH     0.4215 ****
9272 HC1   -22.223482    8.637309    0.823779 H    1495 MOH     0.0372 ****
9273 C1    -22.594141    8.240492    1.768474 C    1495 MOH     0.1166 ****
9274 HC2   -21.739663    8.117609    2.433861 H    1495 MOH     0.0372 ****
9275 HC3   -23.065836    7.264778    1.652508 H    1495 MOH     0.0372 ****
9276 O1    -23.449197    9.175789    2.330624 O    1495 MOH    -0.6497 ****
9277 HO1   -23.264445    9.177422    3.272490 H    1495 MOH     0.4215 ****
9278 HC1   -22.339530   -4.417246   12.975409 H    1496 MOH     0.0372 ****
9279 C1    -21.445214   -4.859788   13.415230 C    1496 MOH     0.1166 ****
9280 HC2   -21.379396   -4.586669   14.468112 H    1496 MOH     0.0372 ****
9281 HC3   -20.554940   -4.489915   12.906113 H    1496 MOH     0.0372 ****
9282 O1    -21.496598   -6.272327   13.299264 O    1496 MOH    -0.6497 ****
9283 HO1   -20.591313   -6.580554   13.387653 H    1496 MOH     0.4215 ****
9284 HC1   -23.685910   -8.775705   -8.688928 H    1497 MOH     0.0372 ****
9285 C1    -23.172068   -8.466661   -7.778882 C    1497 MOH     0.1166 ****
9286 HC2   -22.088959   -8.492789   -7.894847 H    1497 MOH     0.0372 ****
9287 HC3   -23.475177   -9.105978   -6.948739 H    1497 MOH     0.0372 ****
9288 O1    -23.611432   -7.209257   -7.496039 O    1497 MOH    -0.6497 ****
9289 HO1   -23.943408   -6.847140   -8.321233 H    1497 MOH     0.4215 ****
9290 HC1   -22.935355    3.962458    6.561951 H    1498 MOH     0.0372 ****
9291 C1    -23.001750    3.701996    7.618368 C    1498 MOH     0.1166 ****
9292 HC2   -22.893786    2.623812    7.742112 H    1498 MOH     0.0372 ****
9293 HC3   -23.985555    4.016755    7.966972 H    1498 MOH     0.0372 ****
9294 O1    -22.017945    4.420921    8.341738 O    1498 MOH    -0.6497 ****
9295 HO1   -21.195221    4.311918    7.858785 H    1498 MOH     0.4215 ****
9296 HC1   -15.388810    6.523400   11.410582 H    1499 MOH     0.0372 ****
9297 C1    -14.951178    5.619946   10.985611 C    1499 MOH     0.1166 ****
9298 HC2   -14.707536    5.815089    9.941921 H    1499 MOH     0.0372 ****
9299 HC3   -15.656700    4.793652   11.078949 H    1499 MOH     0.0372 ****
9300 O1    -13.814953    5.322333   11.733023 O    1499 MOH    -0.6497 ****
9301 HO1   -13.187373    6.048199   11.684939 H    1499 MOH     0.4215 ****
9302 HC1   -18.608692   -0.674426   10.777721 H    1500 MOH     0.0372 ****
9303 C1    -19.019188   -1.630952   11.100869 C    1500 MOH     0.1166 ****
9304 HC2   -18.240343   -2.393560   11.122082 H    1500 MOH     0.0372 ****
9305 HC3   -19.804385   -1.909785   10.398712 H    1500 MOH     0.0372 ****
9306 O1    -19.615014   -1.486432   12.356691 O    1500 MOH    -0.6497 ****
9307 HO1   -18.994362   -1.037359   12.935104 H    1500 MOH     0.4215 ****
9308 HC1   -22.225791   10.051073   -2.251428 H    1501 MOH     0.0372 ****
9309 C1    -21.659411   10.356034   -1.371080 C    1501 MOH     0.1166 ****
9310 HC2   -21.273741    9.462379   -0.879641 H    1501 MOH     0.0372 ****
9311 HC3   -22.313549   10.879817   -0.674580 H    1501 MOH     0.0372 ****
9312 O1    -20.564755   11.170490   -1.776253 O    1501 MOH    -0.6497 ****
9313 HO1   -20.915784   12.045774   -1.953029 H    1501 MOH     0.4215 ****
9314 HC1   -30.309273    0.646257   -2.854590 H    1502 MOH     0.0372 ****
9315 C1    -29.750397    1.278634   -2.165161 C    1502 MOH     0.1166 ****
9316 HC2   -29.705364    2.279250   -2.595789 H    1502 MOH     0.0372 ****
9317 HC3   -28.737148    0.884266   -2.084551 H    1502 MOH     0.0372 ****
9318 O1    -30.415505    1.290881   -0.876813 O    1502 MOH    -0.6497 ****
9319 HO1   -29.948429    0.672793   -0.311127 H    1502 MOH     0.4215 ****
9320 HC1   -21.834348   -5.566874   -4.955404 H    1503 MOH     0.0372 ****
9321 C1    -22.716539   -4.983487   -4.694482 C    1503 MOH     0.1166 ****
9322 HC2   -22.412276   -3.984912   -4.383355 H    1503 MOH     0.0372 ****
9323 HC3   -23.251743   -5.473385   -3.881309 H    1503 MOH     0.0372 ****
9324 O1    -23.537531   -4.928373   -5.861915 O    1503 MOH    -0.6497 ****
9325 HO1   -23.628175   -5.817130   -6.214762 H    1503 MOH     0.4215 ****
9326 HC1   -20.104029   -3.704037    0.111016 H    1504 MOH     0.0372 ****
9327 C1    -20.415798   -2.660554    0.075660 C    1504 MOH     0.1166 ****
9328 HC2   -19.609817   -2.003274    0.403758 H    1504 MOH     0.0372 ****
9329 HC3   -21.258730   -2.537263    0.754483 H    1504 MOH     0.0372 ****
9330 O1    -20.869018   -2.314360   -1.218345 O    1504 MOH    -0.6497 ****
9331 HO1   -21.080328   -1.378654   -1.188647 H    1504 MOH     0.4215 ****
9332 HC1   -13.407921    4.309469    7.608469 H    1505 MOH     0.0372 ****
9333 C1    -12.482428    4.609123    8.102029 C    1505 MOH     0.1166 ****
9334 HC2   -12.038446    3.755068    8.613975 H    1505 MOH     0.0372 ****
9335 HC3   -12.728380    5.361117    8.851563 H    1505 MOH     0.0372 ****
9336 O1    -11.600237    5.108411    7.076017 O    1505 MOH    -0.6497 ****
9337 HO1   -11.790763    6.046565    7.001064 H    1505 MOH     0.4215 ****
9338 HC1   -24.378731   -4.533189    0.927724 H    1506 MOH     0.0372 ****
9339 C1    -23.607391   -4.826311    1.640488 C    1506 MOH     0.1166 ****
9340 HC2   -22.709611   -5.082691    1.077631 H    1506 MOH     0.0372 ****
9341 HC3   -23.937635   -5.714660    2.179303 H    1506 MOH     0.0372 ****
9342 O1    -23.347006   -3.748944    2.549120 O    1506 MOH    -0.6497 ****
9343 HO1   -24.013268   -3.773847    3.239963 H    1506 MOH     0.4215 ****
9344 HC1   -24.508057   -3.922450    6.810852 H    1507 MOH     0.0372 ****
9345 C1    -24.024815   -4.073093    5.845652 C    1507 MOH     0.1166 ****
9346 HC2   -23.569286   -5.062687    5.825853 H    1507 MOH     0.0372 ****
9347 HC3   -23.264445   -3.303953    5.707059 H    1507 MOH     0.0372 ****
9348 O1    -25.055962   -4.023695    4.859238 O    1507 MOH    -0.6497 ****
9349 HO1   -25.568650   -3.222712    4.989345 H    1507 MOH     0.4215 ****
9350 HC1   -28.808162   -2.494805    0.477297 H    1508 MOH     0.0372 ****
9351 C1    -28.220419   -1.579104    0.538815 C    1508 MOH     0.1166 ****
9352 HC2   -27.754498   -1.368448   -0.424264 H    1508 MOH     0.0372 ****
9353 HC3   -27.431759   -1.727707    1.275620 H    1508 MOH     0.0372 ****
9354 O1    -29.002152   -0.454380    0.914289 O    1508 MOH    -0.6497 ****
9355 HO1   -29.402255   -0.618496    1.771302 H    1508 MOH     0.4215 ****
9356 HC1   -14.991015    8.178438    2.956413 H    1509 MOH     0.0372 ****
9357 C1    -14.045316    8.521367    3.376435 C    1509 MOH     0.1166 ****
9358 HC2   -14.159054    9.495855    3.852318 H    1509 MOH     0.0372 ****
9359 HC3   -13.315545    8.634860    2.574576 H    1509 MOH     0.0372 ****
9360 O1    -13.603643    7.599134    4.348707 O    1509 MOH    -0.6497 ****
9361 HO1   -12.772258    7.210890    4.066571 H    1509 MOH     0.4215 ****
9362 HC1   -15.072999    0.112677   -1.972828 H    1510 MOH     0.0372 ****
9363 C1    -14.291267    0.785878   -2.324260 C    1510 MOH     0.1166 ****
9364 HC2   -13.731814    0.351094   -3.152282 H    1510 MOH     0.0372 ****
9365 HC3   -13.605952    0.990819   -1.502602 H    1510 MOH     0.0372 ****
9366 O1    -14.865153    1.985311   -2.769737 O    1510 MOH    -0.6497 ****
9367 HO1   -14.670008    2.628711   -2.083844 H    1510 MOH     0.4215 ****
9368 HC1   -10.173143   22.853576   -1.701299 H    1511 MOH     0.0372 ****
9369 C1    -11.209486   22.992380   -1.394415 C    1511 MOH     0.1166 ****
9370 HC2   -11.772980   23.356538   -2.252842 H    1511 MOH     0.0372 ****
9371 HC3   -11.279346   23.742333   -0.605991 H    1511 MOH     0.0372 ****
9372 O1    -11.734875   21.749673   -0.977222 O    1511 MOH    -0.6497 ****
9373 HO1   -12.497555   21.901949   -0.415072 H    1511 MOH     0.4215 ****
9374 HC1   -15.674713   12.312605    2.390021 H    1512 MOH     0.0372 ****
9375 C1    -16.475498   11.918646    3.015810 C    1512 MOH     0.1166 ****
9376 HC2   -17.041302   11.188289    2.436690 H    1512 MOH     0.0372 ****
9377 HC3   -17.148111   12.695542    3.377142 H    1512 MOH     0.0372 ****
9378 O1    -15.978400   11.177675    4.060207 O    1512 MOH    -0.6497 ****
9379 HO1   -15.433958   11.773717    4.579223 H    1512 MOH     0.4215 ****
9380 HC1    -3.565369   13.551639    6.896412 H    1513 MOH     0.0372 ****
9381 C1     -3.504170   14.331393    7.654431 C    1513 MOH     0.1166 ****
9382 HC2    -3.143903   13.885586    8.582155 H    1513 MOH     0.0372 ****
9383 HC3    -4.497212   14.756788    7.800095 H    1513 MOH     0.0372 ****
9384 O1     -2.632948   15.354055    7.226631 O    1513 MOH    -0.6497 ****
9385 HO1    -1.746138   14.993980    7.160163 H    1513 MOH     0.4215 ****
9386 HC1     2.693108   18.300791    1.115814 H    1514 MOH     0.0372 ****
9387 C1      3.126698   18.493893    2.096572 C    1514 MOH     0.1166 ****
9388 HC2     3.412486   19.544724    2.147483 H    1514 MOH     0.0372 ****
9389 HC3     4.014663   17.874580    2.223144 H    1514 MOH     0.0372 ****
9390 O1      2.172338   18.179133    3.104199 O    1514 MOH    -0.6497 ****
9391 HO1     2.373256   17.287519    3.396941 H    1514 MOH     0.4215 ****
9392 HC1     6.762850   16.689435   -3.499472 H    1515 MOH     0.0372 ****
9393 C1      6.568283   17.430814   -2.724482 C    1515 MOH     0.1166 ****
9394 HC2     5.504227   17.472864   -2.491844 H    1515 MOH     0.0372 ****
9395 HC3     6.869660   18.419183   -3.071672 H    1515 MOH     0.0372 ****
9396 O1      7.238009   17.100541   -1.513209 O    1515 MOH    -0.6497 ****
9397 HO1     7.020348   16.206069   -1.240972 H    1515 MOH     0.4215 ****
9398 HC1    -9.123520   21.402253    2.967727 H    1516 MOH     0.0372 ****
9399 C1     -8.519612   21.953797    3.688269 C    1516 MOH     0.1166 ****
9400 HC2    -7.707857   21.318562    4.041822 H    1516 MOH     0.0372 ****
9401 HC3    -9.167976   22.239571    4.516998 H    1516 MOH     0.0372 ****
9402 O1     -8.015007   23.077704    3.032781 O    1516 MOH    -0.6497 ****
9403 HO1    -7.202098   23.339391    3.471894 H    1516 MOH     0.4215 ****
9404 HC1    -2.419328   14.994796   -9.493616 H    1517 MOH     0.0372 ****
9405 C1     -3.211453   14.462441   -8.967528 C    1517 MOH     0.1166 ****
9406 HC2    -3.184318   14.720045   -7.908989 H    1517 MOH     0.0372 ****
9407 HC3    -3.045754   13.394871   -9.109657 H    1517 MOH     0.0372 ****
9408 O1     -4.440054   14.878037   -9.523314 O    1517 MOH    -0.6497 ****
9409 HO1    -5.134607   14.519187   -8.965407 H    1517 MOH     0.4215 ****
9410 HC1    -1.723044   22.885828  -10.612966 H    1518 MOH     0.0372 ****
9411 C1     -1.185531   23.228348  -11.497556 C    1518 MOH     0.1166 ****
9412 HC2    -1.513466   22.654351  -12.364469 H    1518 MOH     0.0372 ****
9413 HC3    -0.126093   23.043820  -11.319366 H    1518 MOH     0.0372 ****
9414 O1     -1.445916   24.609044  -11.766257 O    1518 MOH    -0.6497 ****
9415 HO1    -1.186686   24.813984  -12.667111 H    1518 MOH     0.4215 ****
9416 HC1   -11.061685   16.080737    7.352496 H    1519 MOH     0.0372 ****
9417 C1    -12.081863   15.788023    7.600691 C    1519 MOH     0.1166 ****
9418 HC2   -12.242943   15.845586    8.676200 H    1519 MOH     0.0372 ****
9419 HC3   -12.290286   14.765769    7.283907 H    1519 MOH     0.0372 ****
9420 O1    -12.968095   16.680454    6.999650 O    1519 MOH    -0.6497 ****
9421 HO1   -12.516607   17.056859    6.240217 H    1519 MOH     0.4215 ****
9422 HC1     1.645795   21.053609   -1.970707 H    1520 MOH     0.0372 ****
9423 C1      1.694292   19.966036   -2.021618 C    1520 MOH     0.1166 ****
9424 HC2     1.316128   19.611268   -2.979748 H    1520 MOH     0.0372 ****
9425 HC3     1.087497   19.519412   -1.233901 H    1520 MOH     0.0372 ****
9426 O1      3.030858   19.531660   -1.948079 O    1520 MOH    -0.6497 ****
9427 HO1     2.998526   18.572276   -1.926866 H    1520 MOH     0.4215 ****
9428 HC1    -7.264452   20.028906   -7.544122 H    1521 MOH     0.0372 ****
9429 C1     -7.218841   19.574117   -8.534072 C    1521 MOH     0.1166 ****
9430 HC2    -6.301432   18.995221   -8.642966 H    1521 MOH     0.0372 ****
9431 HC3    -7.229234   20.351830   -9.297040 H    1521 MOH     0.0372 ****
9432 O1     -8.322158   18.737617   -8.751154 O    1521 MOH    -0.6497 ****
9433 HO1    -8.062927   17.850085   -8.493767 H    1521 MOH     0.4215 ****
9434 HC1     0.842701   15.472039   -9.048846 H    1522 MOH     0.0372 ****
9435 C1      1.041309   16.432647   -8.574377 C    1522 MOH     0.1166 ****
9436 HC2     2.105943   16.649835   -8.657816 H    1522 MOH     0.0372 ****
9437 HC3     0.812101   16.397537   -7.509474 H    1522 MOH     0.0372 ****
9438 O1      0.248030   17.428364   -9.225622 O    1522 MOH    -0.6497 ****
9439 HO1     0.295372   18.204444   -8.662058 H    1522 MOH     0.4215 ****
9440 HC1   -16.462797   18.867440    3.556747 H    1523 MOH     0.0372 ****
9441 C1    -15.422411   18.894792    3.230771 C    1523 MOH     0.1166 ****
9442 HC2   -14.838133   18.255067    3.893330 H    1523 MOH     0.0372 ****
9443 HC3   -15.081197   19.928477    3.284511 H    1523 MOH     0.0372 ****
9444 O1    -15.355439   18.412651    1.907774 O    1523 MOH    -0.6497 ****
9445 HO1   -15.950109   17.659841    1.863933 H    1523 MOH     0.4215 ****
9446 HC1   -13.582396   14.185240   -0.603162 H    1524 MOH     0.0372 ****
9447 C1    -12.667873   14.491426   -1.110865 C    1524 MOH     0.1166 ****
9448 HC2   -12.072625   15.145848   -0.473762 H    1524 MOH     0.0372 ****
9449 HC3   -12.943269   15.037662   -2.013133 H    1524 MOH     0.0372 ****
9450 O1    -11.965815   13.352005   -1.508966 O    1524 MOH    -0.6497 ****
9451 HO1   -11.031085   13.550822   -1.419164 H    1524 MOH     0.4215 ****
9452 HC1    -0.316041   10.004778   -4.036873 H    1525 MOH     0.0372 ****
9453 C1     -0.268699   10.728194   -3.222286 C    1525 MOH     0.1166 ****
9454 HC2    -1.061978   11.455692   -3.393406 H    1525 MOH     0.0372 ****
9455 HC3     0.692012   11.241770   -3.268955 H    1525 MOH     0.0372 ****
9456 O1     -0.454028   10.086427   -1.928280 O    1525 MOH    -0.6497 ****
9457 HO1    -0.645709   10.762078   -1.272792 H    1525 MOH     0.4215 ****
9458 HC1   -16.636579   13.847619   -5.458865 H    1526 MOH     0.0372 ****
9459 C1    -16.593855   14.089302   -4.396790 C    1526 MOH     0.1166 ****
9460 HC2   -15.556934   14.027248   -4.065864 H    1526 MOH     0.0372 ****
9461 HC3   -17.191413   13.387523   -3.814841 H    1526 MOH     0.0372 ****
9462 O1    -17.027445   15.383041   -4.127383 O    1526 MOH    -0.6497 ****
9463 HO1   -17.797053   15.574509   -4.668319 H    1526 MOH     0.4215 ****
9464 HC1   -19.239851   17.785173    2.256377 H    1527 MOH     0.0372 ****
9465 C1    -19.674596   16.899683    2.719532 C    1527 MOH     0.1166 ****
9466 HC2   -20.086824   16.224849    1.969292 H    1527 MOH     0.0372 ****
9467 HC3   -20.496743   17.185865    3.376435 H    1527 MOH     0.0372 ****
9468 O1    -18.769311   16.197088    3.515028 O    1527 MOH    -0.6497 ****
9469 HO1   -19.295854   15.479387    3.875652 H    1527 MOH     0.4215 ****
9470 HC1     6.441843   18.719246    0.282136 H    1528 MOH     0.0372 ****
9471 C1      6.524404   19.659033    0.828022 C    1528 MOH     0.1166 ****
9472 HC2     5.697639   20.314680    0.555079 H    1528 MOH     0.0372 ****
9473 HC3     7.481651   20.121170    0.583363 H    1528 MOH     0.0372 ****
9474 O1      6.483413   19.300999    2.169404 O    1528 MOH    -0.6497 ****
9475 HO1     6.707424   20.044011    2.733675 H    1528 MOH     0.4215 ****
9476 HC1    -5.650758   23.343474    0.025456 H    1529 MOH     0.0372 ****
9477 C1     -6.316443   24.202428    0.110308 C    1529 MOH     0.1166 ****
9478 HC2    -7.358560   23.882362    0.103237 H    1529 MOH     0.0372 ****
9479 HC3    -6.181343   24.827048   -0.772161 H    1529 MOH     0.0372 ****
9480 O1     -6.090699   24.999329    1.313804 O    1529 MOH    -0.6497 ****
9481 HO1    -6.163445   24.432272    2.083843 H    1529 MOH     0.4215 ****
9482 HC1    -5.576280   12.689418    8.975306 H    1530 MOH     0.0372 ****
9483 C1     -5.276635   11.642262    8.960457 C    1530 MOH     0.1166 ****
9484 HC2    -4.642705   11.453651    8.093544 H    1530 MOH     0.0372 ****
9485 HC3    -6.144393   10.988248    8.881261 H    1530 MOH     0.0372 ****
9486 O1     -4.571690   11.331176   10.154053 O    1530 MOH    -0.6497 ****
9487 HO1    -4.137523   10.482836   10.035259 H    1530 MOH     0.4215 ****
9488 HC1   -13.327207   15.957038   -5.072077 H    1531 MOH     0.0372 ****
9489 C1    -13.867607   16.826606   -5.445430 C    1531 MOH     0.1166 ****
9490 HC2   -14.311012   16.497150   -6.385174 H    1531 MOH     0.0372 ****
9491 HC3   -13.144764   17.629631   -5.591801 H    1531 MOH     0.0372 ****
9492 O1    -14.858917   17.165044   -4.451945 O    1531 MOH    -0.6497 ****
9493 HO1   -15.494580   16.451018   -4.369213 H    1531 MOH     0.4215 ****
9494 HC1   -14.883743    9.185015   -9.381186 H    1532 MOH     0.0372 ****
9495 C1    -14.470938   10.192572   -9.417955 C    1532 MOH     0.1166 ****
9496 HC2   -14.556386   10.663282   -8.438613 H    1532 MOH     0.0372 ****
9497 HC3   -15.047711   10.780449  -10.132133 H    1532 MOH     0.0372 ****
9498 O1    -13.131485   10.137050   -9.849291 O    1532 MOH    -0.6497 ****
9499 HO1   -13.097999    9.476504  -10.545084 H    1532 MOH     0.4215 ****
9500 HC1    -8.710137   27.597421    2.759130 H    1533 MOH     0.0372 ****
9501 C1     -9.164512   27.895442    1.814436 C    1533 MOH     0.1166 ****
9502 HC2   -10.245311   27.760720    1.862519 H    1533 MOH     0.0372 ****
9503 HC3    -8.741891   27.270823    1.026719 H    1533 MOH     0.0372 ****
9504 O1     -8.882765   29.252868    1.554928 O    1533 MOH    -0.6497 ****
9505 HO1    -9.152387   29.447194    0.654073 H    1533 MOH     0.4215 ****
9506 HC1    -4.902512   13.805161    1.551392 H    1534 MOH     0.0372 ****
9507 C1     -5.042808   13.650843    0.482247 C    1534 MOH     0.1166 ****
9508 HC2    -5.239107   14.605328   -0.007071 H    1534 MOH     0.0372 ****
9509 HC3    -5.877079   12.971926    0.306177 H    1534 MOH     0.0372 ****
9510 O1     -3.867323   13.096442   -0.069297 O    1534 MOH    -0.6497 ****
9511 HO1    -3.220691   12.995605    0.632860 H    1534 MOH     0.4215 ****
9512 HC1    -2.139314   21.841529    2.841862 H    1535 MOH     0.0372 ****
9513 C1     -1.656649   20.875613    2.694784 C    1535 MOH     0.1166 ****
9514 HC2    -2.429721   20.121578    2.546998 H    1535 MOH     0.0372 ****
9515 HC3    -1.092000   20.633114    3.594224 H    1535 MOH     0.0372 ****
9516 O1     -0.748477   20.903374    1.571898 O    1535 MOH    -0.6497 ****
9517 HO1    -0.037181   21.507581    1.801001 H    1535 MOH     0.4215 ****
9518 HC1    -7.446317   13.598995   -5.817368 H    1536 MOH     0.0372 ****
9519 C1     -7.607398   12.586131   -5.448965 C    1536 MOH     0.1166 ****
9520 HC2    -8.358531   12.631039   -4.661248 H    1536 MOH     0.0372 ****
9521 HC3    -6.682483   12.185640   -5.033893 H    1536 MOH     0.0372 ****
9522 O1     -8.058886   11.739424   -6.505383 O    1536 MOH    -0.6497 ****
9523 HO1    -7.654163   10.881287   -6.355476 H    1536 MOH     0.4215 ****
9524 HC1     0.425276   25.113230   10.977833 H    1537 MOH     0.0372 ****
9525 C1     -0.286019   24.287344   10.967226 C    1537 MOH     0.1166 ****
9526 HC2     0.075979   23.556171   10.243856 H    1537 MOH     0.0372 ****
9527 HC3    -1.275020   24.659667   10.697111 H    1537 MOH     0.0372 ****
9528 O1     -0.349528   23.713755   12.252039 O    1537 MOH    -0.6497 ****
9529 HO1    -0.625501   24.397571   12.866515 H    1537 MOH     0.4215 ****
9530 HC1    -3.645043   26.642937   -6.030207 H    1538 MOH     0.0372 ****
9531 C1     -4.225858   27.024241   -5.190164 C    1538 MOH     0.1166 ****
9532 HC2    -3.928522   28.031389   -4.898129 H    1538 MOH     0.0372 ****
9533 HC3    -4.018011   26.369002   -4.343757 H    1538 MOH     0.0372 ****
9534 O1     -5.605147   26.980558   -5.475128 O    1538 MOH    -0.6497 ****
9535 HO1    -6.010447   26.305724   -4.925706 H    1538 MOH     0.4215 ****
9536 HC1   -15.067341   16.286086    4.995709 H    1539 MOH     0.0372 ****
9537 C1    -15.458784   15.516946    4.331029 C    1539 MOH     0.1166 ****
9538 HC2   -14.959376   15.550831    3.363000 H    1539 MOH     0.0372 ****
9539 HC3   -16.530347   15.679429    4.206578 H    1539 MOH     0.0372 ****
9540 O1    -15.317911   14.250152    4.915806 O    1539 MOH    -0.6497 ****
9541 HO1   -15.764203   14.249743    5.765041 H    1539 MOH     0.4215 ****
9542 HC1     1.152738   13.854151    0.615183 H    1540 MOH     0.0372 ****
9543 C1      1.135994   12.847002    0.197283 C    1540 MOH     0.1166 ****
9544 HC2     1.637712   12.188498    0.905097 H    1540 MOH     0.0372 ****
9545 HC3     1.687364   12.818425   -0.743169 H    1540 MOH     0.0372 ****
9546 O1     -0.206922   12.411401    0.048083 O    1540 MOH    -0.6497 ****
9547 HO1    -0.698825   12.672272    0.830850 H    1540 MOH     0.4215 ****
9548 HC1    -4.712564   17.645144   -0.253144 H    1541 MOH     0.0372 ****
9549 C1     -5.776043   17.846002   -0.384666 C    1541 MOH     0.1166 ****
9550 HC2    -6.358012   16.924994   -0.357796 H    1541 MOH     0.0372 ****
9551 HC3    -5.941165   18.316713   -1.354110 H    1541 MOH     0.0372 ****
9552 O1     -6.226376   18.736392    0.594677 O    1541 MOH    -0.6497 ****
9553 HO1    -6.116102   19.630864    0.264458 H    1541 MOH     0.4215 ****
9554 HC1    -0.999624   20.572693   -3.049752 H    1542 MOH     0.0372 ****
9555 C1     -1.403769   20.918479   -4.000810 C    1542 MOH     0.1166 ****
9556 HC2    -2.336767   20.395105   -4.212942 H    1542 MOH     0.0372 ****
9557 HC3    -0.682659   20.773551   -4.804791 H    1542 MOH     0.0372 ****
9558 O1     -1.650298   22.284478   -3.846661 O    1542 MOH    -0.6497 ****
9559 HO1    -0.825842   22.740083   -3.658571 H    1542 MOH     0.4215 ****
9560 HC1    -5.232179    9.316879    2.153847 H    1543 MOH     0.0372 ****
9561 C1     -5.418086    9.902715    1.253700 C    1543 MOH     0.1166 ****
9562 HC2    -5.400188    9.278912    0.359917 H    1543 MOH     0.0372 ****
9563 HC3    -4.670417   10.688185    1.144806 H    1543 MOH     0.0372 ****
9564 O1     -6.660544   10.491001    1.383101 O    1543 MOH    -0.6497 ****
9565 HO1    -6.959034   10.601637    0.477297 H    1543 MOH     0.4215 ****
9566 HC1    -4.047456   12.891909    3.573010 H    1544 MOH     0.0372 ****
9567 C1     -3.293437   12.138283    3.345322 C    1544 MOH     0.1166 ****
9568 HC2    -3.779566   11.248710    2.945807 H    1544 MOH     0.0372 ****
9569 HC3    -2.804421   11.848835    4.275167 H    1544 MOH     0.0372 ****
9570 O1     -2.359284   12.680437    2.400627 O    1544 MOH    -0.6497 ****
9571 HO1    -2.142778   13.578175    2.660136 H    1544 MOH     0.4215 ****
9572 HC1    -5.802024   21.244669   -5.513312 H    1545 MOH     0.0372 ****
9573 C1     -6.039315   20.958079   -4.488007 C    1545 MOH     0.1166 ****
9574 HC2    -5.277212   20.295492   -4.078592 H    1545 MOH     0.0372 ****
9575 HC3    -6.992520   20.429398   -4.507099 H    1545 MOH     0.0372 ****
9576 O1     -6.140928   22.084436   -3.650085 O    1545 MOH    -0.6497 ****
9577 HO1    -5.367279   22.640879   -3.769586 H    1545 MOH     0.4215 ****
9578 HC1    -8.110848    6.262365    0.838629 H    1546 MOH     0.0372 ****
9579 C1     -8.517879    7.262982    0.693672 C    1546 MOH     0.1166 ****
9580 HC2    -9.563461    7.217258    0.388201 H    1546 MOH     0.0372 ****
9581 HC3    -7.961314    7.720628   -0.123037 H    1546 MOH     0.0372 ****
9582 O1     -8.363150    8.086827    1.850498 O    1546 MOH    -0.6497 ****
9583 HO1    -8.080248    8.967010    1.590283 H    1546 MOH     0.4215 ****
9584 HC1    -8.704941   10.667773    3.061065 H    1547 MOH     0.0372 ****
9585 C1     -8.616606   11.653692    3.517149 C    1547 MOH     0.1166 ****
9586 HC2    -9.217628   11.685536    4.425074 H    1547 MOH     0.0372 ****
9587 HC3    -8.968790   12.388948    2.793779 H    1547 MOH     0.0372 ****
9588 O1     -7.276576   11.857408    3.824740 O    1547 MOH    -0.6497 ****
9589 HO1    -6.791602   11.390781    3.140968 H    1547 MOH     0.4215 ****
9590 HC1     1.239917   22.460025   -4.716402 H    1548 MOH     0.0372 ****
9591 C1      1.660228   23.343474   -4.235570 C    1548 MOH     0.1166 ****
9592 HC2     1.913685   24.085261   -4.992881 H    1548 MOH     0.0372 ****
9593 HC3     2.547038   23.060558   -3.669177 H    1548 MOH     0.0372 ****
9594 O1      0.655062   23.839904   -3.412497 O    1548 MOH    -0.6497 ****
9595 HO1     1.011287   24.036271   -2.543463 H    1548 MOH     0.4215 ****
9596 HC1    -4.408878   24.767852    7.859492 H    1549 MOH     0.0372 ****
9597 C1     -4.451602   25.641912    7.209661 C    1549 MOH     0.1166 ****
9598 HC2    -3.650817   26.342058    7.447956 H    1549 MOH     0.0372 ****
9599 HC3    -5.390950   26.157938    7.404822 H    1549 MOH     0.0372 ****
9600 O1     -4.451024   25.287552    5.818074 O    1549 MOH    -0.6497 ****
9601 HO1    -4.341905   26.079962    5.287037 H    1549 MOH     0.4215 ****
9602 HC1    -6.741373    5.830439    3.874945 H    1550 MOH     0.0372 ****
9603 C1     -5.665192    5.838604    3.705239 C    1550 MOH     0.1166 ****
9604 HC2    -5.244881    6.698783    4.224963 H    1550 MOH     0.0372 ****
9605 HC3    -5.461387    5.899025    2.636094 H    1550 MOH     0.0372 ****
9606 O1     -5.071676    4.693876    4.205871 O    1550 MOH    -0.6497 ****
9607 HO1    -5.533556    4.432597    5.004902 H    1550 MOH     0.4215 ****
9608 HC1   -10.095200   20.498392   -3.526342 H    1551 MOH     0.0372 ****
9609 C1    -10.677747   19.625557   -3.230771 C    1551 MOH     0.1166 ****
9610 HC2   -10.341729   18.710672   -3.717968 H    1551 MOH     0.0372 ****
9611 HC3   -11.697925   19.805594   -3.568061 H    1551 MOH     0.0372 ****
9612 O1    -10.684675   19.478587   -1.827871 O    1551 MOH    -0.6497 ****
9613 HO1   -10.871159   20.340400   -1.446741 H    1551 MOH     0.4215 ****
9614 HC1   -10.926007   17.483886    0.744583 H    1552 MOH     0.0372 ****
9615 C1     -9.894283   17.200154    0.538815 C    1552 MOH     0.1166 ****
9616 HC2    -9.623505   16.374267    1.195717 H    1552 MOH     0.0372 ****
9617 HC3    -9.245918   18.050943    0.749533 H    1552 MOH     0.0372 ****
9618 O1     -9.756296   16.880904   -0.823072 O    1552 MOH    -0.6497 ****
9619 HO1   -10.053054   17.673722   -1.275621 H    1552 MOH     0.4215 ****
9620 HC1    -5.431942   16.756388   -4.941969 H    1553 MOH     0.0372 ****
9621 C1     -5.417508   17.463882   -5.771406 C    1553 MOH     0.1166 ****
9622 HC2    -6.408242   17.894992   -5.912827 H    1553 MOH     0.0372 ****
9623 HC3    -5.078604   16.970718   -6.682159 H    1553 MOH     0.0372 ****
9624 O1     -4.540513   18.515530   -5.464521 O    1553 MOH    -0.6497 ****
9625 HO1    -4.344214   18.522470   -4.524776 H    1553 MOH     0.4215 ****
9626 HC1     0.699518   12.921712    8.387701 H    1554 MOH     0.0372 ****
9627 C1      0.774573   13.963561    8.077988 C    1554 MOH     0.1166 ****
9628 HC2     1.813226   14.188098    7.834743 H    1554 MOH     0.0372 ****
9629 HC3     0.412574   14.564911    8.913081 H    1554 MOH     0.0372 ****
9630 O1     -0.113392   14.121145    7.001771 O    1554 MOH    -0.6497 ****
9631 HO1     0.253803   13.600629    6.284058 H    1554 MOH     0.4215 ****
9632 HC1    -9.575585    9.009060    8.936415 H    1555 MOH     0.0372 ****
9633 C1     -8.583120    9.029881    8.485988 C    1555 MOH     0.1166 ****
9634 HC2    -8.060041    9.941091    8.775902 H    1555 MOH     0.0372 ****
9635 HC3    -8.643165    8.974359    7.399872 H    1555 MOH     0.0372 ****
9636 O1     -7.848153    7.965169    8.934294 O    1555 MOH    -0.6497 ****
9637 HO1    -8.295022    7.169085    8.638723 H    1555 MOH     0.4215 ****
9638 HC1   -11.635571   21.238546    1.941715 H    1556 MOH     0.0372 ****
9639 C1    -11.875171   20.605761    2.795900 C    1556 MOH     0.1166 ****
9640 HC2   -12.920753   20.730277    3.076621 H    1556 MOH     0.0372 ****
9641 HC3   -11.242973   20.913172    3.629579 H    1556 MOH     0.0372 ****
9642 O1    -11.573217   19.255684    2.479823 O    1556 MOH    -0.6497 ****
9643 HO1   -12.035675   18.982566    1.684328 H    1556 MOH     0.4215 ****
9644 HC1   -14.229028   13.300158   -7.158042 H    1557 MOH     0.0372 ****
9645 C1    -13.440945   13.334451   -7.910404 C    1557 MOH     0.1166 ****
9646 HC2   -13.861256   13.725961   -8.837421 H    1557 MOH     0.0372 ****
9647 HC3   -13.043151   12.336692   -8.097080 H    1557 MOH     0.0372 ****
9648 O1    -12.434624   14.234638   -7.560386 O    1557 MOH    -0.6497 ****
9649 HO1   -11.607281   13.769643   -7.703929 H    1557 MOH     0.4215 ****
9650 HC1   -11.025312   12.679620   -9.876161 H    1558 MOH     0.0372 ****
9651 C1    -10.595186   12.109706   -9.051674 C    1558 MOH     0.1166 ****
9652 HC2    -9.819804   11.465898   -9.466746 H    1558 MOH     0.0372 ****
9653 HC3   -11.340545   11.460999   -8.591348 H    1558 MOH     0.0372 ****
9654 O1    -10.025918   13.004178   -8.111929 O    1558 MOH    -0.6497 ****
9655 HO1    -9.611381   12.464882   -7.435228 H    1558 MOH     0.4215 ****
9656 HC1    -0.678040   21.394905   -7.590791 H    1559 MOH     0.0372 ****
9657 C1      0.065587   20.873980   -8.193246 C    1559 MOH     0.1166 ****
9658 HC2     0.981265   21.463491   -8.241330 H    1559 MOH     0.0372 ****
9659 HC3    -0.270431   20.752730   -9.223501 H    1559 MOH     0.0372 ****
9660 O1      0.403914   19.645153   -7.609176 O    1559 MOH    -0.6497 ****
9661 HO1    -0.299876   19.373668   -7.015914 H    1559 MOH     0.4215 ****
9662 HC1     0.037874   15.717804   -2.930958 H    1560 MOH     0.0372 ****
9663 C1     -0.001386   14.648194   -3.136019 C    1560 MOH     0.1166 ****
9664 HC2    -0.779654   14.219941   -2.504572 H    1560 MOH     0.0372 ****
9665 HC3     0.967408   14.211776   -2.892067 H    1560 MOH     0.0372 ****
9666 O1     -0.290061   14.356296   -4.504270 O    1560 MOH    -0.6497 ****
9667 HO1     0.139488   13.541841   -4.776506 H    1560 MOH     0.4215 ****
9668 HC1     4.199415   14.397937   -5.177436 H    1561 MOH     0.0372 ****
9669 C1      3.676913   15.327110   -4.949748 C    1561 MOH     0.1166 ****
9670 HC2     2.644611   15.114005   -4.671147 H    1561 MOH     0.0372 ****
9671 HC3     3.717327   15.973368   -5.825853 H    1561 MOH     0.0372 ****
9672 O1      4.364537   15.890493   -3.883431 O    1561 MOH    -0.6497 ****
9673 HO1     4.826995   15.175242   -3.440782 H    1561 MOH     0.4215 ****
9674 HC1    -2.400276    9.612043    4.462551 H    1562 MOH     0.0372 ****
9675 C1     -2.149129    9.091526    5.386739 C    1562 MOH     0.1166 ****
9676 HC2    -2.815968    8.237879    5.507655 H    1562 MOH     0.0372 ****
9677 HC3    -2.272104    9.761462    6.237389 H    1562 MOH     0.0372 ****
9678 O1     -0.809099    8.660824    5.289866 O    1562 MOH    -0.6497 ****
9679 HO1    -0.619150    8.105198    6.048591 H    1562 MOH     0.4215 ****
9680 HC1    -0.927455   16.542466   -5.558567 H    1563 MOH     0.0372 ****
9681 C1     -1.864495   16.798437   -6.051420 C    1563 MOH     0.1166 ****
9682 HC2    -2.702807   16.466531   -5.438358 H    1563 MOH     0.0372 ****
9683 HC3    -1.882970   16.299558   -7.020156 H    1563 MOH     0.0372 ****
9684 O1     -1.895094   18.181991   -6.268502 O    1563 MOH    -0.6497 ****
9685 HO1    -2.811349   18.423266   -6.420530 H    1563 MOH     0.4215 ****
9686 HC1   -10.874046   15.840279    3.683319 H    1564 MOH     0.0372 ****
9687 C1    -11.883832   16.239545    3.775243 C    1564 MOH     0.1166 ****
9688 HC2   -12.496400   15.498167    4.288602 H    1564 MOH     0.0372 ****
9689 HC3   -12.285090   16.431422    2.779637 H    1564 MOH     0.0372 ****
9690 O1    -11.815704   17.428364    4.537504 O    1564 MOH    -0.6497 ****
9691 HO1   -11.481418   18.121570    3.963333 H    1564 MOH     0.4215 ****
9692 HC1    -4.257034   11.832505   -7.266229 H    1565 MOH     0.0372 ****
9693 C1     -3.951616   10.852301   -7.633218 C    1565 MOH     0.1166 ****
9694 HC2    -3.002452   10.931909   -8.162841 H    1565 MOH     0.0372 ****
9695 HC3    -4.718337   10.459974   -8.300020 H    1565 MOH     0.0372 ****
9696 O1     -3.798041    9.931701   -6.559123 O    1565 MOH    -0.6497 ****
9697 HO1    -2.948759    9.497733   -6.667310 H    1565 MOH     0.4215 ****
9698 HC1     1.584018    9.184198   -0.593263 H    1566 MOH     0.0372 ****
9699 C1      2.455240    9.687569   -1.012577 C    1566 MOH     0.1166 ****
9700 HC2     2.157327   10.636746   -1.455933 H    1566 MOH     0.0372 ****
9701 HC3     2.894026    9.076013   -1.801708 H    1566 MOH     0.0372 ****
9702 O1      3.424034    9.962728   -0.026870 O    1566 MOH    -0.6497 ****
9703 HO1     3.854159    9.124594    0.156271 H    1566 MOH     0.4215 ****
9704 HC1   -15.130272   23.076480    2.107178 H    1567 MOH     0.0372 ****
9705 C1    -14.267711   23.539433    1.627760 C    1567 MOH     0.1166 ****
9706 HC2   -13.480782   23.654151    2.373757 H    1567 MOH     0.0372 ****
9707 HC3   -14.584676   24.531476    1.305319 H    1567 MOH     0.0372 ****
9708 O1    -13.884928   22.751922    0.468812 O    1567 MOH    -0.6497 ****
9709 HO1   -14.578903   22.798054   -0.192333 H    1567 MOH     0.4215 ****
9710 HC1    -8.443979   18.513897    8.367901 H    1568 MOH     0.0372 ****
9711 C1     -7.836029   19.384690    8.119707 C    1568 MOH     0.1166 ****
9712 HC2    -6.786406   19.115246    8.005156 H    1568 MOH     0.0372 ****
9713 HC3    -7.892609   20.106882    8.935001 H    1568 MOH     0.0372 ****
9714 O1     -8.230936   19.946848    6.909847 O    1568 MOH    -0.6497 ****
9715 HO1    -7.949190   19.348356    6.214054 H    1568 MOH     0.4215 ****
9716 HC1    -6.971158   15.507964  -12.341135 H    1569 MOH     0.0372 ****
9717 C1     -6.047398   15.696167  -12.889143 C    1569 MOH     0.1166 ****
9718 HC2    -5.456768   14.781282  -12.851666 H    1569 MOH     0.0372 ****
9719 HC3    -5.524896   16.519604  -12.401946 H    1569 MOH     0.0372 ****
9720 O1     -6.320484   16.048485  -14.243252 O    1569 MOH    -0.6497 ****
9721 HO1    -5.538752   16.470614  -14.606705 H    1569 MOH     0.4215 ****
9722 HC1    -2.863311   24.763770   -2.320018 H    1570 MOH     0.0372 ****
9723 C1     -3.878293   24.380425   -2.423962 C    1570 MOH     0.1166 ****
9724 HC2    -4.599403   25.197738   -2.402749 H    1570 MOH     0.0372 ****
9725 HC3    -4.113274   23.685586   -1.617861 H    1570 MOH     0.0372 ****
9726 O1     -4.005887   23.668440   -3.606245 O    1570 MOH    -0.6497 ****
9727 HO1    -3.285354   23.035246   -3.638065 H    1570 MOH     0.4215 ****
9728 HC1    -9.384482   10.769835   -1.430477 H    1571 MOH     0.0372 ****
9729 C1     -8.527694   10.511822   -2.054145 C    1571 MOH     0.1166 ****
9730 HC2    -8.341788   11.305048   -2.777516 H    1571 MOH     0.0372 ****
9731 HC3    -8.773646    9.607960   -2.611345 H    1571 MOH     0.0372 ****
9732 O1     -7.364334   10.321170   -1.252993 O    1571 MOH    -0.6497 ****
9733 HO1    -6.668049    9.973342   -1.814436 H    1571 MOH     0.4215 ****
9734 HC1    -3.329810   10.429764   -2.247185 H    1572 MOH     0.0372 ****
9735 C1     -3.828063    9.654092   -2.827013 C    1572 MOH     0.1166 ****
9736 HC2    -3.101179    8.908631   -3.149454 H    1572 MOH     0.0372 ****
9737 HC3    -4.290521   10.128069   -3.693219 H    1572 MOH     0.0372 ****
9738 O1     -4.803208    9.023349   -2.030104 O    1572 MOH    -0.6497 ****
9739 HO1    -4.331513    8.654292   -1.280570 H    1572 MOH     0.4215 ****
9740 HC1     0.010739   16.481637    4.939848 H    1573 MOH     0.0372 ****
9741 C1     -0.611645   17.376109    4.930655 C    1573 MOH     0.1166 ****
9742 HC2    -0.167663   18.163211    5.540182 H    1573 MOH     0.0372 ****
9743 HC3    -1.583325   17.098092    5.340070 H    1573 MOH     0.0372 ****
9744 O1     -0.791201   17.828856    3.609073 O    1573 MOH    -0.6497 ****
9745 HO1     0.066164   18.104424    3.276026 H    1573 MOH     0.4215 ****
9746 HC1    -4.005310   22.128527   -6.540738 H    1574 MOH     0.0372 ****
9747 C1     -3.412371   21.790089   -7.389973 C    1574 MOH     0.1166 ****
9748 HC2    -3.045176   20.794372   -7.141779 H    1574 MOH     0.0372 ****
9749 HC3    -2.565398   22.460025   -7.542001 H    1574 MOH     0.0372 ****
9750 O1     -4.216620   21.739058   -8.560235 O    1574 MOH    -0.6497 ****
9751 HO1    -3.809588   21.088719   -9.137941 H    1574 MOH     0.4215 ****
9752 HC1    -8.248834   22.449410   -0.878227 H    1575 MOH     0.0372 ****
9753 C1     -8.067546   21.411235   -0.598920 C    1575 MOH     0.1166 ****
9754 HC2    -8.726880   20.773959   -1.187940 H    1575 MOH     0.0372 ****
9755 HC3    -8.292136   21.256509    0.456791 H    1575 MOH     0.0372 ****
9756 O1     -6.737331   21.015642   -0.840043 O    1575 MOH    -0.6497 ****
9757 HO1    -6.557775   21.123828   -1.776960 H    1575 MOH     0.4215 ****
9758 HC1    -4.360380   16.661266    2.780344 H    1576 MOH     0.0372 ****
9759 C1     -3.906583   17.540633    3.237135 C    1576 MOH     0.1166 ****
9760 HC2    -3.069425   17.857433    2.614881 H    1576 MOH     0.0372 ****
9761 HC3    -3.602897   17.291601    4.253954 H    1576 MOH     0.0372 ****
9762 O1     -4.856901   18.538392    3.201779 O    1576 MOH    -0.6497 ****
9763 HO1    -5.184836   18.593913    2.300925 H    1576 MOH     0.4215 ****
9764 HC1     3.002568   19.980325    8.157184 H    1577 MOH     0.0372 ****
9765 C1      2.749688   20.844994    8.770952 C    1577 MOH     0.1166 ****
9766 HC2     3.557401   21.028298    9.478766 H    1577 MOH     0.0372 ****
9767 HC3     1.831701   20.612293    9.309768 H    1577 MOH     0.0372 ****
9768 O1      2.557431   21.953389    7.914646 O    1577 MOH    -0.6497 ****
9769 HO1     1.872116   21.682312    7.299463 H    1577 MOH     0.4215 ****
9770 HC1    -0.738085   12.720853    4.623064 H    1578 MOH     0.0372 ****
9771 C1      0.084640   12.030097    4.437802 C    1578 MOH     0.1166 ****
9772 HC2     0.360036   12.151347    3.390577 H    1578 MOH     0.0372 ****
9773 HC3    -0.223666   10.990289    4.544575 H    1578 MOH     0.0372 ****
9774 O1      1.174677   12.340774    5.322393 O    1578 MOH    -0.6497 ****
9775 HO1     1.785513   11.600212    5.335121 H    1578 MOH     0.4215 ****
9776 HC1    -4.990847   14.062357   -4.572153 H    1579 MOH     0.0372 ****
9777 C1     -4.063622   13.885586   -4.028387 C    1579 MOH     0.1166 ****
9778 HC2    -4.129440   12.960903   -3.454924 H    1579 MOH     0.0372 ****
9779 HC3    -3.840188   14.722087   -3.365828 H    1579 MOH     0.0372 ****
9780 O1     -3.060187   13.783524   -4.958940 O    1579 MOH    -0.6497 ****
9781 HO1    -2.250165   14.124411   -4.572153 H    1579 MOH     0.4215 ****
9782 HC1    -7.087783   14.206469   -9.845048 H    1580 MOH     0.0372 ****
9783 C1     -6.807768   13.298116   -9.311182 C    1580 MOH     0.1166 ****
9784 HC2    -5.999477   12.802503   -9.848583 H    1580 MOH     0.0372 ****
9785 HC3    -7.638575   12.592255   -9.287848 H    1580 MOH     0.0372 ****
9786 O1     -6.370136   13.559395   -7.991721 O    1580 MOH    -0.6497 ****
9787 HO1    -6.717701   12.854759   -7.440178 H    1580 MOH     0.4215 ****
9788 HC1     4.096069   13.678604    3.558161 H    1581 MOH     0.0372 ****
9789 C1      3.264685   14.362012    3.388456 C    1581 MOH     0.1166 ****
9790 HC2     2.342656   13.901916    3.745545 H    1581 MOH     0.0372 ****
9791 HC3     3.194248   14.550214    2.317189 H    1581 MOH     0.0372 ****
9792 O1      3.592620   15.582674    4.040408 O    1581 MOH    -0.6497 ****
9793 HO1     4.205766   15.385490    4.752465 H    1581 MOH     0.4215 ****
9794 HC1    -3.397360   15.908048   12.041321 H    1582 MOH     0.0372 ****
9795 C1     -4.288789   16.534709   12.009501 C    1582 MOH     0.1166 ****
9796 HC2    -5.177331   15.903965   11.969196 H    1582 MOH     0.0372 ****
9797 HC3    -4.279551   17.152797   11.111476 H    1582 MOH     0.0372 ****
9798 O1     -4.278397   17.382233   13.130973 O    1582 MOH    -0.6497 ****
9799 HO1    -3.522645   17.962353   13.014300 H    1582 MOH     0.4215 ****
9800 HC1     3.855892   16.504907   -0.419314 H    1583 MOH     0.0372 ****
9801 C1      2.846106   16.184024   -0.675287 C    1583 MOH     0.1166 ****
9802 HC2     2.148667   16.614726    0.043841 H    1583 MOH     0.0372 ****
9803 HC3     2.764700   15.097675   -0.640639 H    1583 MOH     0.0372 ****
9804 O1      2.491035   16.643303   -1.947372 O    1583 MOH    -0.6497 ****
9805 HO1     3.089748   16.235871   -2.576697 H    1583 MOH     0.4215 ****
9806 HC1    -1.740365   17.169943   10.627815 H    1584 MOH     0.0372 ****
9807 C1     -1.515775   18.235880   10.678019 C    1584 MOH     0.1166 ****
9808 HC2    -1.874887   18.783749    9.806864 H    1584 MOH     0.0372 ****
9809 HC3    -0.429780   18.282420   10.605894 H    1584 MOH     0.0372 ****
9810 O1     -1.876619   18.833963   11.944448 O    1584 MOH    -0.6497 ****
9811 HO1    -1.948788   19.782732   11.818583 H    1584 MOH     0.4215 ****
9812 HC1    -7.498279   15.076038    7.077432 H    1585 MOH     0.0372 ****
9813 C1     -7.153023   14.233005    6.479926 C    1585 MOH     0.1166 ****
9814 HC2    -6.412860   13.701058    7.078846 H    1585 MOH     0.0372 ****
9815 HC3    -6.711351   14.618800    5.561395 H    1585 MOH     0.0372 ****
9816 O1     -8.205533   13.315263    6.146172 O    1585 MOH    -0.6497 ****
9817 HO1    -7.926673   12.802095    5.384618 H    1585 MOH     0.4215 ****
9818 HC1    -0.340868   23.613326    0.854892 H    1586 MOH     0.0372 ****
9819 C1     -0.833347   24.049743   -0.014142 C    1586 MOH     0.1166 ****
9820 HC2    -1.775583   24.537192    0.236173 H    1586 MOH     0.0372 ****
9821 HC3    -1.085649   23.215284   -0.668923 H    1586 MOH     0.0372 ****
9822 O1      0.004388   24.974834   -0.714178 O    1586 MOH    -0.6497 ****
9823 HO1    -0.536589   25.674572   -1.086116 H    1586 MOH     0.4215 ****
9824 HC1     6.000170   12.213401   -1.484217 H    1587 MOH     0.0372 ****
9825 C1      5.094308   12.537958   -1.995455 C    1587 MOH     0.1166 ****
9826 HC2     4.208653   12.145223   -1.496238 H    1587 MOH     0.0372 ****
9827 HC3     5.101813   12.189722   -3.028538 H    1587 MOH     0.0372 ****
9828 O1      5.001354   13.930085   -1.981313 O    1587 MOH    -0.6497 ****
9829 HO1     5.271554   14.215450   -1.105208 H    1587 MOH     0.4215 ****
9830 HC1    -1.465546   16.777208    0.500631 H    1588 MOH     0.0372 ****
9831 C1     -0.802170   15.955405    0.770039 C    1588 MOH     0.1166 ****
9832 HC2     0.213966   16.341608    0.847821 H    1588 MOH     0.0372 ****
9833 HC3    -0.816027   15.172793    0.011314 H    1588 MOH     0.0372 ****
9834 O1     -1.180335   15.528377    2.056974 O    1588 MOH    -0.6497 ****
9835 HO1    -1.126641   16.297517    2.628316 H    1588 MOH     0.4215 ****
9836 HC1     2.314366   22.976459    4.603972 H    1589 MOH     0.0372 ****
9837 C1      1.974884   22.230589    3.884845 C    1589 MOH     0.1166 ****
9838 HC2     1.468548   21.393272    4.366384 H    1589 MOH     0.0372 ****
9839 HC3     2.861694   21.833772    3.389870 H    1589 MOH     0.0372 ****
9840 O1      1.133685   22.851127    2.930250 O    1589 MOH    -0.6497 ****
9841 HO1     1.663115   23.536167    2.514472 H    1589 MOH     0.4215 ****
9842 HC1    -6.979241   15.740258   -4.376991 H    1590 MOH     0.0372 ****
9843 C1     -7.609707   15.426723   -3.545434 C    1590 MOH     0.1166 ****
9844 HC2    -8.586007   15.114005   -3.915958 H    1590 MOH     0.0372 ****
9845 HC3    -7.780026   16.253834   -2.855297 H    1590 MOH     0.0372 ****
9846 O1     -7.007531   14.372626   -2.849640 O    1590 MOH    -0.6497 ****
9847 HO1    -7.658205   14.018266   -2.240114 H    1590 MOH     0.4215 ****
9848 HC1    -4.317079   20.472672   -1.233194 H    1591 MOH     0.0372 ****
9849 C1     -3.660632   20.748240   -0.408001 C    1591 MOH     0.1166 ****
9850 HC2    -4.207382   20.712314    0.535280 H    1591 MOH     0.0372 ****
9851 HC3    -3.314221   21.770902   -0.558615 H    1591 MOH     0.0372 ****
9852 O1     -2.541727   19.876221   -0.342947 O    1591 MOH    -0.6497 ****
9853 HO1    -1.936664   20.202820    0.327390 H    1591 MOH     0.4215 ****
9854 HC1    -0.540631   25.187532    6.534374 H    1592 MOH     0.0372 ****
9855 C1     -0.852400   24.768669    7.491796 C    1592 MOH     0.1166 ****
9856 HC2    -1.379521   25.514947    8.084352 H    1592 MOH     0.0372 ****
9857 HC3     0.040184   24.435130    8.020005 H    1592 MOH     0.0372 ****
9858 O1     -1.667041   23.654559    7.264815 O    1592 MOH    -0.6497 ****
9859 HO1    -2.352933   23.895834    6.639025 H    1592 MOH     0.4215 ****
9860 HC1   -14.979006   10.404861   -1.180161 H    1593 MOH     0.0372 ****
9861 C1    -14.335261   11.189106   -1.576848 C    1593 MOH     0.1166 ****
9862 HC2   -14.301197   11.990497   -0.839336 H    1593 MOH     0.0372 ****
9863 HC3   -14.734210   11.629197   -2.491845 H    1593 MOH     0.0372 ****
9864 O1    -13.023521   10.724519   -1.807365 O    1593 MOH    -0.6497 ****
9865 HO1   -12.581271   11.511622   -2.132634 H    1593 MOH     0.4215 ****
9866 HC1    -5.703297   22.111789    5.326635 H    1594 MOH     0.0372 ****
9867 C1     -5.121328   22.354288    4.437095 C    1594 MOH     0.1166 ****
9868 HC2    -5.157701   21.532485    3.722210 H    1594 MOH     0.0372 ****
9869 HC3    -4.094222   22.497584    4.774385 H    1594 MOH     0.0372 ****
9870 O1     -5.587250   23.598629    3.905351 O    1594 MOH    -0.6497 ****
9871 HO1    -5.171557   24.275913    4.443459 H    1594 MOH     0.4215 ****
9872 HC1    -8.208997   17.545532    2.998133 H    1595 MOH     0.0372 ****
9873 C1     -8.046184   17.321403    4.052429 C    1595 MOH     0.1166 ****
9874 HC2    -7.478649   16.394680    4.144353 H    1595 MOH     0.0372 ****
9875 HC3    -9.029989   17.203828    4.506391 H    1595 MOH     0.0372 ****
9876 O1     -7.353364   18.397954    4.644277 O    1595 MOH    -0.6497 ****
9877 HO1    -6.515051   18.488585    4.186072 H    1595 MOH     0.4215 ****
9878 HC1   -10.273602   11.479370    7.757668 H    1596 MOH     0.0372 ****
9879 C1    -10.666777   11.914155    8.676200 C    1596 MOH     0.1166 ****
9880 HC2   -10.850952   12.978866    8.534779 H    1596 MOH     0.0372 ****
9881 HC3    -9.967606   11.770043    9.499979 H    1596 MOH     0.0372 ****
9882 O1    -11.831293   11.253201    9.005005 O    1596 MOH    -0.6497 ****
9883 HO1   -12.255645   11.702682    9.739689 H    1596 MOH     0.4215 ****
9884 HC1    -8.486702   17.440612   -6.337798 H    1597 MOH     0.0372 ****
9885 C1     -8.620070   16.417950   -6.690645 C    1597 MOH     0.1166 ****
9886 HC2    -9.618886   16.340383   -7.119151 H    1597 MOH     0.0372 ****
9887 HC3    -8.546747   15.701066   -5.873229 H    1597 MOH     0.0372 ****
9888 O1     -7.699774   16.140749   -7.702514 O    1597 MOH    -0.6497 ****
9889 HO1    -7.583727   15.192797   -7.794438 H    1597 MOH     0.4215 ****
9890 HC1    -6.299700    8.166027   -7.380074 H    1598 MOH     0.0372 ****
9891 C1     -7.036399    8.511814   -6.655289 C    1598 MOH     0.1166 ****
9892 HC2    -7.307176    7.703890   -5.974345 H    1598 MOH     0.0372 ****
9893 HC3    -7.945148    8.811468   -7.175720 H    1598 MOH     0.0372 ****
9894 O1     -6.596458    9.593263   -5.861208 O    1598 MOH    -0.6497 ****
9895 HO1    -5.649026    9.524678   -5.725444 H    1598 MOH     0.4215 ****
9896 HC1    -5.351113   24.721312   -7.027935 H    1599 MOH     0.0372 ****
9897 C1     -6.198663   24.056684   -6.858229 C    1599 MOH     0.1166 ****
9898 HC2    -7.064111   24.700491   -6.701958 H    1599 MOH     0.0372 ****
9899 HC3    -5.965991   23.454926   -5.980002 H    1599 MOH     0.0372 ****
9900 O1     -6.332031   23.354905   -8.073745 O    1599 MOH    -0.6497 ****
9901 HO1    -5.486213   22.949106   -8.278806 H    1599 MOH     0.4215 ****
9902 HC1     5.600067   11.107456    2.952878 H    1600 MOH     0.0372 ****
9903 C1      5.984005   11.704315    2.125563 C    1600 MOH     0.1166 ****
9904 HC2     6.671629   11.087044    1.547150 H    1600 MOH     0.0372 ****
9905 HC3     6.485145   12.566127    2.567505 H    1600 MOH     0.0372 ****
9906 O1      4.918793   12.143999    1.338553 O    1600 MOH    -0.6497 ****
9907 HO1     4.389363   11.387923    1.076924 H    1600 MOH     0.4215 ****
9908 HC1    -3.933718   20.103616    7.553314 H    1601 MOH     0.0372 ****
9909 C1     -3.870210   19.180566    6.977022 C    1601 MOH     0.1166 ****
9910 HC2    -2.838485   18.976442    6.691351 H    1601 MOH     0.0372 ****
9911 HC3    -4.487397   19.292426    6.086068 H    1601 MOH     0.0372 ****
9912 O1     -4.388093   18.127286    7.742112 O    1601 MOH    -0.6497 ****
9913 HO1    -4.138100   17.302624    7.317848 H    1601 MOH     0.4215 ****
9914 HC1   -15.984750   19.411226   -0.929139 H    1602 MOH     0.0372 ****
9915 C1    -16.151027   20.481653   -0.810345 C    1602 MOH     0.1166 ****
9916 HC2   -15.797689   20.802537    0.169705 H    1602 MOH     0.0372 ****
9917 HC3   -17.217971   20.694759   -0.882470 H    1602 MOH     0.0372 ****
9918 O1    -15.463981   21.196088   -1.820093 O    1602 MOH    -0.6497 ****
9919 HO1   -15.554625   20.666182   -2.614881 H    1602 MOH     0.4215 ****
9920 HC1    -9.321551   25.727236   -3.778072 H    1603 MOH     0.0372 ****
9921 C1     -8.450329   25.071997   -3.797164 C    1603 MOH     0.1166 ****
9922 HC2    -8.450907   24.500450   -4.724888 H    1603 MOH     0.0372 ****
9923 HC3    -8.478042   24.362870   -2.969142 H    1603 MOH     0.0372 ****
9924 O1     -7.271958   25.856650   -3.723625 O    1603 MOH    -0.6497 ****
9925 HO1    -7.301402   26.367369   -2.911159 H    1603 MOH     0.4215 ****
9926 HC1     5.492102   16.564103    1.688571 H    1604 MOH     0.0372 ****
9927 C1      6.132384   15.688819    1.797465 C    1604 MOH     0.1166 ****
9928 HC2     5.982273   15.287919    2.800143 H    1604 MOH     0.0372 ****
9929 HC3     7.171037   16.001537    1.691399 H    1604 MOH     0.0372 ****
9930 O1      5.753064   14.746990    0.794081 O    1604 MOH    -0.6497 ****
9931 HO1     5.682050   13.873747    1.186525 H    1604 MOH     0.4215 ****
9932 HC1   -13.506763   18.962153   -1.252993 H    1605 MOH     0.0372 ****
9933 C1    -13.239450   17.957454   -0.924189 C    1605 MOH     0.1166 ****
9934 HC2   -12.294905   17.668006   -1.384515 H    1605 MOH     0.0372 ****
9935 HC3   -14.002130   17.243836   -1.233902 H    1605 MOH     0.0372 ****
9936 O1    -13.072018   17.965211    0.504874 O    1605 MOH    -0.6497 ****
9937 HO1   -13.900516   18.153005    0.951765 H    1605 MOH     0.4215 ****
9938 HC1     3.627838   18.777625    6.109402 H    1606 MOH     0.0372 ****
9939 C1      4.486358   19.139333    5.543717 C    1606 MOH     0.1166 ****
9940 HC2     4.138216   19.658625    4.651348 H    1606 MOH     0.0372 ****
9941 HC3     5.115670   18.298750    5.250268 H    1606 MOH     0.0372 ****
9942 O1      5.235759   20.028906    6.339212 O    1606 MOH    -0.6497 ****
9943 HO1     5.403190   19.610452    7.187033 H    1606 MOH     0.4215 ****
9944 HC1     4.426891   20.098717   -3.822619 H    1607 MOH     0.0372 ****
9945 C1      3.980022   20.512680   -4.726302 C    1607 MOH     0.1166 ****
9946 HC2     2.952338   20.831522   -4.554475 H    1607 MOH     0.0372 ****
9947 HC3     4.010621   19.740275   -5.495634 H    1607 MOH     0.0372 ****
9948 O1      4.790622   21.576984   -5.114503 O    1607 MOH    -0.6497 ****
9949 HO1     4.972487   22.123220   -4.346585 H    1607 MOH     0.4215 ****
9950 HC1    -2.347160   17.846411   -9.228451 H    1608 MOH     0.0372 ****
9951 C1     -3.271497   18.361620   -9.490080 C    1608 MOH     0.1166 ****
9952 HC2    -3.984525   18.314671   -8.666301 H    1608 MOH     0.0372 ****
9953 HC3    -3.707397   17.915405  -10.383156 H    1608 MOH     0.0372 ****
9954 O1     -3.033629   19.710881   -9.769387 O    1608 MOH    -0.6497 ****
9955 HO1    -2.529025   19.741091  -10.585389 H    1608 MOH     0.4215 ****
9956 HC1   -10.625208   25.039746    0.823779 H    1609 MOH     0.0372 ****
9957 C1    -10.995867   24.642928    1.768474 C    1609 MOH     0.1166 ****
9958 HC2   -10.141388   24.520046    2.433861 H    1609 MOH     0.0372 ****
9959 HC3   -11.467562   23.667215    1.652508 H    1609 MOH     0.0372 ****
9960 O1    -11.850923   25.578225    2.330624 O    1609 MOH    -0.6497 ****
9961 HO1   -11.666171   25.579858    3.272490 H    1609 MOH     0.4215 ****
9962 HC1   -10.741255   11.985190   12.975409 H    1610 MOH     0.0372 ****
9963 C1     -9.846940   11.542649   13.415230 C    1610 MOH     0.1166 ****
9964 HC2    -9.781122   11.815767   14.468112 H    1610 MOH     0.0372 ****
9965 HC3    -8.956666   11.912522   12.906113 H    1610 MOH     0.0372 ****
9966 O1     -9.898324   10.130110   13.299264 O    1610 MOH    -0.6497 ****
9967 HO1    -8.993039    9.821882   13.387653 H    1610 MOH     0.4215 ****
9968 HC1   -12.087636    7.626731   -8.688928 H    1611 MOH     0.0372 ****
9969 C1    -11.573794    7.935775   -7.778882 C    1611 MOH     0.1166 ****
9970 HC2   -10.490685    7.909647   -7.894847 H    1611 MOH     0.0372 ****
9971 HC3   -11.876903    7.296458   -6.948739 H    1611 MOH     0.0372 ****
9972 O1    -12.013158    9.193180   -7.496039 O    1611 MOH    -0.6497 ****
9973 HO1   -12.345134    9.555296   -8.321233 H    1611 MOH     0.4215 ****
9974 HC1   -11.337081   20.364894    6.561951 H    1612 MOH     0.0372 ****
9975 C1    -11.403476   20.104432    7.618368 C    1612 MOH     0.1166 ****
9976 HC2   -11.295512   19.026248    7.742112 H    1612 MOH     0.0372 ****
9977 HC3   -12.387281   20.419191    7.966972 H    1612 MOH     0.0372 ****
9978 O1    -10.419671   20.823357    8.341738 O    1612 MOH    -0.6497 ****
9979 HO1    -9.596947   20.714355    7.858785 H    1612 MOH     0.4215 ****
9980 HC1    -3.790536   22.925836   11.410582 H    1613 MOH     0.0372 ****
9981 C1     -3.352904   22.022383   10.985611 C    1613 MOH     0.1166 ****
9982 HC2    -3.109262   22.217525    9.941921 H    1613 MOH     0.0372 ****
9983 HC3    -4.058426   21.196088   11.078949 H    1613 MOH     0.0372 ****
9984 O1     -2.216679   21.724770   11.733023 O    1613 MOH    -0.6497 ****
9985 HO1    -1.589099   22.450635   11.684939 H    1613 MOH     0.4215 ****
9986 HC1    -7.010418   15.728010   10.777721 H    1614 MOH     0.0372 ****
9987 C1     -7.420914   14.771485   11.100869 C    1614 MOH     0.1166 ****
9988 HC2    -6.642069   14.008877   11.122082 H    1614 MOH     0.0372 ****
9989 HC3    -8.206110   14.492651   10.398712 H    1614 MOH     0.0372 ****
9990 O1     -8.016740   14.916005   12.356691 O    1614 MOH    -0.6497 ****
9991 HO1    -7.396088   15.365078   12.935104 H    1614 MOH     0.4215 ****
9992 HC1   -10.627517   26.453509   -2.251428 H    1615 MOH     0.0372 ****
9993 C1    -10.061137   26.758471   -1.371080 C    1615 MOH     0.1166 ****
9994 HC2    -9.675467   25.864815   -0.879641 H    1615 MOH     0.0372 ****
9995 HC3   -10.715275   27.282253   -0.674580 H    1615 MOH     0.0372 ****
9996 O1     -8.966481   27.572926   -1.776253 O    1615 MOH    -0.6497 ****
9997 HO1    -9.317510   28.448211   -1.953029 H    1615 MOH     0.4215 ****
9998 HC1   -18.710998   17.048694   -2.854590 H    1616 MOH     0.0372 ****
9999 C1    -18.152123   17.681070   -2.165161 C    1616 MOH     0.1166 ****
10000 HC2   -18.107090   18.681687   -2.595789 H    1616 MOH     0.0372 ****
10001 HC3   -17.138874   17.286702   -2.084551 H    1616 MOH     0.0372 ****
10002 O1    -18.817231   17.693318   -0.876813 O    1616 MOH    -0.6497 ****
10003 HO1   -18.350155   17.075230   -0.311127 H    1616 MOH     0.4215 ****
10004 HC1   -10.236074   10.835563   -4.955404 H    1617 MOH     0.0372 ****
10005 C1    -11.118265   11.418950   -4.694482 C    1617 MOH     0.1166 ****
10006 HC2   -10.814001   12.417525   -4.383355 H    1617 MOH     0.0372 ****
10007 HC3   -11.653469   10.929052   -3.881309 H    1617 MOH     0.0372 ****
10008 O1    -11.939257   11.474063   -5.861915 O    1617 MOH    -0.6497 ****
10009 HO1   -12.029901   10.585307   -6.214762 H    1617 MOH     0.4215 ****
10010 HC1    -8.505755   12.698400    0.111016 H    1618 MOH     0.0372 ****
10011 C1     -8.817524   13.741882    0.075660 C    1618 MOH     0.1166 ****
10012 HC2    -8.011543   14.399162    0.403758 H    1618 MOH     0.0372 ****
10013 HC3    -9.660456   13.865173    0.754483 H    1618 MOH     0.0372 ****
10014 O1     -9.270744   14.088077   -1.218345 O    1618 MOH    -0.6497 ****
10015 HO1    -9.482054   15.023782   -1.188647 H    1618 MOH     0.4215 ****
10016 HC1    -1.809647   20.711906    7.608469 H    1619 MOH     0.0372 ****
10017 C1     -0.884154   21.011560    8.102029 C    1619 MOH     0.1166 ****
10018 HC2    -0.440172   20.157504    8.613975 H    1619 MOH     0.0372 ****
10019 HC3    -1.130106   21.763553    8.851563 H    1619 MOH     0.0372 ****
10020 O1     -0.001963   21.510847    7.076017 O    1619 MOH    -0.6497 ****
10021 HO1    -0.192489   22.449002    7.001064 H    1619 MOH     0.4215 ****
10022 HC1   -12.780457   11.869248    0.927724 H    1620 MOH     0.0372 ****
10023 C1    -12.009117   11.576125    1.640488 C    1620 MOH     0.1166 ****
10024 HC2   -11.111337   11.319745    1.077631 H    1620 MOH     0.0372 ****
10025 HC3   -12.339361   10.687777    2.179303 H    1620 MOH     0.0372 ****
10026 O1    -11.748732   12.653492    2.549120 O    1620 MOH    -0.6497 ****
10027 HO1   -12.414994   12.628589    3.239963 H    1620 MOH     0.4215 ****
10028 HC1   -12.909783   12.479987    6.810852 H    1621 MOH     0.0372 ****
10029 C1    -12.426541   12.329343    5.845652 C    1621 MOH     0.1166 ****
10030 HC2   -11.971011   11.339750    5.825853 H    1621 MOH     0.0372 ****
10031 HC3   -11.666171   13.098483    5.707059 H    1621 MOH     0.0372 ****
10032 O1    -13.457688   12.378741    4.859238 O    1621 MOH    -0.6497 ****
10033 HO1   -13.970375   13.179725    4.989345 H    1621 MOH     0.4215 ****
10034 HC1   -17.209888   13.907631    0.477297 H    1622 MOH     0.0372 ****
10035 C1    -16.622145   14.823332    0.538815 C    1622 MOH     0.1166 ****
10036 HC2   -16.156224   15.033988   -0.424264 H    1622 MOH     0.0372 ****
10037 HC3   -15.833485   14.674730    1.275620 H    1622 MOH     0.0372 ****
10038 O1    -17.403877   15.948056    0.914289 O    1622 MOH    -0.6497 ****
10039 HO1   -17.803981   15.783940    1.771302 H    1622 MOH     0.4215 ****
10040 HC1    -3.392741   24.580875    2.956413 H    1623 MOH     0.0372 ****
10041 C1     -2.447041   24.923803    3.376435 C    1623 MOH     0.1166 ****
10042 HC2    -2.560779   25.898292    3.852318 H    1623 MOH     0.0372 ****
10043 HC3    -1.717271   25.037296    2.574576 H    1623 MOH     0.0372 ****
10044 O1     -2.005368   24.001570    4.348707 O    1623 MOH    -0.6497 ****
10045 HO1    -1.173984   23.613326    4.066571 H    1623 MOH     0.4215 ****
10046 HC1    -3.474725   16.515113   -1.972828 H    1624 MOH     0.0372 ****
10047 C1     -2.692993   17.188314   -2.324260 C    1624 MOH     0.1166 ****
10048 HC2    -2.133540   16.753530   -3.152282 H    1624 MOH     0.0372 ****
10049 HC3    -2.007678   17.393255   -1.502602 H    1624 MOH     0.0372 ****
10050 O1     -3.266879   18.387748   -2.769737 O    1624 MOH    -0.6497 ****
10051 HO1    -3.071734   19.031147   -2.083844 H    1624 MOH     0.4215 ****
10052 HC1    -4.076439   28.715042    2.390021 H    1625 MOH     0.0372 ****
10053 C1     -4.877224   28.321082    3.015810 C    1625 MOH     0.1166 ****
10054 HC2    -5.443027   27.590726    2.436690 H    1625 MOH     0.0372 ****
10055 HC3    -5.549837   29.097979    3.377142 H    1625 MOH     0.0372 ****
10056 O1     -4.380126   27.580111    4.060207 O    1625 MOH    -0.6497 ****
10057 HO1    -3.835684   28.176154    4.579223 H    1625 MOH     0.4215 ****
10058 HC1     8.032905   29.954075    6.896412 H    1626 MOH     0.0372 ****
10059 C1      8.094104   30.733830    7.654431 C    1626 MOH     0.1166 ****
10060 HC2     8.454371   30.288022    8.582155 H    1626 MOH     0.0372 ****
10061 HC3     7.101062   31.159224    7.800095 H    1626 MOH     0.0372 ****
10062 O1      8.965326   31.756491    7.226631 O    1626 MOH    -0.6497 ****
10063 HO1     9.852136   31.396416    7.160163 H    1626 MOH     0.4215 ****
10064 HC1     7.654164   23.849538   -6.516696 H    1627 MOH     0.0372 ****
10065 C1      7.467102   22.863619   -6.091725 C    1627 MOH     0.1166 ****
10066 HC2     7.075081   22.958332   -5.079148 H    1627 MOH     0.0372 ****
10067 HC3     8.424349   22.347185   -6.023136 H    1627 MOH     0.0372 ****
10068 O1      6.625903   22.059778   -6.940960 O    1627 MOH    -0.6497 ****
10069 HO1     5.909988   21.713583   -6.403559 H    1627 MOH     0.4215 ****
10070 HC1    10.284571   24.321474    0.120208 H    1628 MOH     0.0372 ****
10071 C1      9.435866   24.756258    0.648417 C    1628 MOH     0.1166 ****
10072 HC2     9.299612   25.783411    0.310420 H    1628 MOH     0.0372 ****
10073 HC3     9.600411   24.744011    1.726048 H    1628 MOH     0.0372 ****
10074 O1      8.270196   24.058153    0.314662 O    1628 MOH    -0.6497 ****
10075 HO1     8.297332   23.257579    0.844285 H    1628 MOH     0.4215 ****
10076 HC1     9.178946   31.397233   -9.493616 H    1629 MOH     0.0372 ****
10077 C1      8.386821   30.864877   -8.967528 C    1629 MOH     0.1166 ****
10078 HC2     8.413956   31.122482   -7.908989 H    1629 MOH     0.0372 ****
10079 HC3     8.552521   29.797308   -9.109657 H    1629 MOH     0.0372 ****
10080 O1      7.158220   31.280474   -9.523314 O    1629 MOH    -0.6497 ****
10081 HO1     6.463667   30.921624   -8.965407 H    1629 MOH     0.4215 ****
10082 HC1    12.440975   31.874475   -9.048846 H    1630 MOH     0.0372 ****
10083 C1     12.639583   32.835083   -8.574377 C    1630 MOH     0.1166 ****
10084 HC2    13.704217   33.052271   -8.657816 H    1630 MOH     0.0372 ****
10085 HC3    12.410375   32.799974   -7.509474 H    1630 MOH     0.0372 ****
10086 O1     11.846304   33.830801   -9.225622 O    1630 MOH    -0.6497 ****
10087 HO1    11.893647   34.606881   -8.662058 H    1630 MOH     0.4215 ****
10088 HC1    -1.984122   30.587677   -0.603162 H    1631 MOH     0.0372 ****
10089 C1     -1.069599   30.893863   -1.110865 C    1631 MOH     0.1166 ****
10090 HC2    -0.474351   31.548285   -0.473762 H    1631 MOH     0.0372 ****
10091 HC3    -1.344995   31.440099   -2.013133 H    1631 MOH     0.0372 ****
10092 O1     -0.367541   29.754442   -1.508966 O    1631 MOH    -0.6497 ****
10093 HO1     0.567189   29.953259   -1.419164 H    1631 MOH     0.4215 ****
10094 HC1    11.282233   26.407214   -4.036873 H    1632 MOH     0.0372 ****
10095 C1     11.329575   27.130630   -3.222286 C    1632 MOH     0.1166 ****
10096 HC2    10.536296   27.858128   -3.393406 H    1632 MOH     0.0372 ****
10097 HC3    12.290286   27.644206   -3.268955 H    1632 MOH     0.0372 ****
10098 O1     11.144246   26.488864   -1.928280 O    1632 MOH    -0.6497 ****
10099 HO1    10.952566   27.164515   -1.272792 H    1632 MOH     0.4215 ****
10100 HC1     6.021994   29.091855    8.975306 H    1633 MOH     0.0372 ****
10101 C1      6.321639   28.044698    8.960457 C    1633 MOH     0.1166 ****
10102 HC2     6.955570   27.856087    8.093544 H    1633 MOH     0.0372 ****
10103 HC3     5.453881   27.390684    8.881261 H    1633 MOH     0.0372 ****
10104 O1      7.026584   27.733613   10.154053 O    1633 MOH    -0.6497 ****
10105 HO1     7.460751   26.885273   10.035259 H    1633 MOH     0.4215 ****
10106 HC1    -3.285469   25.587451   -9.381186 H    1634 MOH     0.0372 ****
10107 C1     -2.872664   26.595008   -9.417955 C    1634 MOH     0.1166 ****
10108 HC2    -2.958112   27.065719   -8.438613 H    1634 MOH     0.0372 ****
10109 HC3    -3.449437   27.182886  -10.132133 H    1634 MOH     0.0372 ****
10110 O1     -1.533211   26.539486   -9.849291 O    1634 MOH    -0.6497 ****
10111 HO1    -1.499725   25.878941  -10.545084 H    1634 MOH     0.4215 ****
10112 HC1    12.827799   23.744210   -3.432296 H    1635 MOH     0.0372 ****
10113 C1     12.147681   23.175521   -2.798022 C    1635 MOH     0.1166 ****
10114 HC2    12.502174   23.212671   -1.767767 H    1635 MOH     0.0372 ****
10115 HC3    12.092832   22.138978   -3.129655 H    1635 MOH     0.0372 ****
10116 O1     10.915038   23.798507   -2.880046 O    1635 MOH    -0.6497 ****
10117 HO1    11.017229   24.691346   -2.544170 H    1635 MOH     0.4215 ****
10118 HC1     6.695762   30.207597    1.551392 H    1636 MOH     0.0372 ****
10119 C1      6.555466   30.053280    0.482247 C    1636 MOH     0.1166 ****
10120 HC2     6.359167   31.007764   -0.007071 H    1636 MOH     0.0372 ****
10121 HC3     5.721195   29.374363    0.306177 H    1636 MOH     0.0372 ****
10122 O1      7.730951   29.498878   -0.069297 O    1636 MOH    -0.6497 ****
10123 HO1     8.377583   29.398041    0.632860 H    1636 MOH     0.4215 ****
10124 HC1     4.151957   30.001432   -5.817368 H    1637 MOH     0.0372 ****
10125 C1      3.990876   28.988568   -5.448965 C    1637 MOH     0.1166 ****
10126 HC2     3.239743   29.033475   -4.661248 H    1637 MOH     0.0372 ****
10127 HC3     4.915791   28.588076   -5.033893 H    1637 MOH     0.0372 ****
10128 O1      3.539388   28.141861   -6.505383 O    1637 MOH    -0.6497 ****
10129 HO1     3.944111   27.283723   -6.355476 H    1637 MOH     0.4215 ****
10130 HC1    13.157466   24.118574    1.796758 H    1638 MOH     0.0372 ****
10131 C1     12.991189   24.205531    2.870853 C    1638 MOH     0.1166 ****
10132 HC2    13.063358   25.261669    3.130362 H    1638 MOH     0.0372 ****
10133 HC3    13.778118   23.651538    3.383506 H    1638 MOH     0.0372 ****
10134 O1     11.665593   23.686647    3.104906 O    1638 MOH    -0.6497 ****
10135 HO1    11.354401   24.035292    3.943534 H    1638 MOH     0.4215 ****
10136 HC1    12.751012   30.256587    0.615183 H    1639 MOH     0.0372 ****
10137 C1     12.734268   29.249439    0.197283 C    1639 MOH     0.1166 ****
10138 HC2    13.235986   28.590934    0.905097 H    1639 MOH     0.0372 ****
10139 HC3    13.285638   29.220861   -0.743169 H    1639 MOH     0.0372 ****
10140 O1     11.391352   28.813838    0.048083 O    1639 MOH    -0.6497 ****
10141 HO1    10.899449   29.074708    0.830850 H    1639 MOH     0.4215 ****
10142 HC1     6.366095   25.719316    2.153847 H    1640 MOH     0.0372 ****
10143 C1      6.180188   26.305152    1.253700 C    1640 MOH     0.1166 ****
10144 HC2     6.198086   25.681349    0.359917 H    1640 MOH     0.0372 ****
10145 HC3     6.927857   27.090622    1.144806 H    1640 MOH     0.0372 ****
10146 O1      4.937730   26.893438    1.383101 O    1640 MOH    -0.6497 ****
10147 HO1     4.639240   27.004073    0.477297 H    1640 MOH     0.4215 ****
10148 HC1     7.550818   29.294346    3.573010 H    1641 MOH     0.0372 ****
10149 C1      8.304837   28.540720    3.345322 C    1641 MOH     0.1166 ****
10150 HC2     7.818708   27.651147    2.945807 H    1641 MOH     0.0372 ****
10151 HC3     8.793853   28.251272    4.275167 H    1641 MOH     0.0372 ****
10152 O1      9.238990   29.082873    2.400627 O    1641 MOH    -0.6497 ****
10153 HO1     9.455496   29.980611    2.660136 H    1641 MOH     0.4215 ****
10154 HC1     3.487427   22.664802    0.838629 H    1642 MOH     0.0372 ****
10155 C1      3.080395   23.665419    0.693672 C    1642 MOH     0.1166 ****
10156 HC2     2.034813   23.619695    0.388201 H    1642 MOH     0.0372 ****
10157 HC3     3.636960   24.123065   -0.123037 H    1642 MOH     0.0372 ****
10158 O1      3.235124   24.489264    1.850498 O    1642 MOH    -0.6497 ****
10159 HO1     3.518026   25.369447    1.590283 H    1642 MOH     0.4215 ****
10160 HC1     2.893333   27.070209    3.061065 H    1643 MOH     0.0372 ****
10161 C1      2.981668   28.056129    3.517149 C    1643 MOH     0.1166 ****
10162 HC2     2.380646   28.087972    4.425074 H    1643 MOH     0.0372 ****
10163 HC3     2.629484   28.791384    2.793779 H    1643 MOH     0.0372 ****
10164 O1      4.321698   28.259845    3.824740 O    1643 MOH    -0.6497 ****
10165 HO1     4.806672   27.793217    3.140968 H    1643 MOH     0.4215 ****
10166 HC1     4.856901   22.232875    3.874945 H    1644 MOH     0.0372 ****
10167 C1      5.933082   22.241040    3.705239 C    1644 MOH     0.1166 ****
10168 HC2     6.353393   23.101219    4.224963 H    1644 MOH     0.0372 ****
10169 HC3     6.136887   22.301461    2.636094 H    1644 MOH     0.0372 ****
10170 O1      6.526598   21.096312    4.205871 O    1644 MOH    -0.6497 ****
10171 HO1     6.064718   20.835033    5.004902 H    1644 MOH     0.4215 ****
10172 HC1     6.166332   33.158824   -4.941969 H    1645 MOH     0.0372 ****
10173 C1      6.180766   33.866319   -5.771406 C    1645 MOH     0.1166 ****
10174 HC2     5.190033   34.297429   -5.912827 H    1645 MOH     0.0372 ****
10175 HC3     6.519670   33.373155   -6.682159 H    1645 MOH     0.0372 ****
10176 O1      7.057761   34.917966   -5.464521 O    1645 MOH    -0.6497 ****
10177 HO1     7.254060   34.924906   -4.524776 H    1645 MOH     0.4215 ****
10178 HC1    12.297792   29.324148    8.387701 H    1646 MOH     0.0372 ****
10179 C1     12.372847   30.365998    8.077988 C    1646 MOH     0.1166 ****
10180 HC2    13.411500   30.590534    7.834743 H    1646 MOH     0.0372 ****
10181 HC3    12.010849   30.967348    8.913081 H    1646 MOH     0.0372 ****
10182 O1     11.484882   30.523582    7.001771 O    1646 MOH    -0.6497 ****
10183 HO1    11.852077   30.003065    6.284058 H    1646 MOH     0.4215 ****
10184 HC1     2.022689   25.411497    8.936415 H    1647 MOH     0.0372 ****
10185 C1      3.015154   25.432317    8.485988 C    1647 MOH     0.1166 ****
10186 HC2     3.538233   26.343527    8.775902 H    1647 MOH     0.0372 ****
10187 HC3     2.955110   25.376795    7.399872 H    1647 MOH     0.0372 ****
10188 O1      3.750121   24.367606    8.934294 O    1647 MOH    -0.6497 ****
10189 HO1     3.303252   23.571522    8.638723 H    1647 MOH     0.4215 ****
10190 HC1    -2.630754   29.702594   -7.158042 H    1648 MOH     0.0372 ****
10191 C1     -1.842671   29.736887   -7.910404 C    1648 MOH     0.1166 ****
10192 HC2    -2.262982   30.128397   -8.837421 H    1648 MOH     0.0372 ****
10193 HC3    -1.444877   28.739128   -8.097080 H    1648 MOH     0.0372 ****
10194 O1     -0.836350   30.637075   -7.560386 O    1648 MOH    -0.6497 ****
10195 HO1    -0.009007   30.172080   -7.703929 H    1648 MOH     0.4215 ****
10196 HC1     0.572963   29.082057   -9.876161 H    1649 MOH     0.0372 ****
10197 C1      1.003088   28.512142   -9.051674 C    1649 MOH     0.1166 ****
10198 HC2     1.778470   27.868335   -9.466746 H    1649 MOH     0.0372 ****
10199 HC3     0.257729   27.863436   -8.591348 H    1649 MOH     0.0372 ****
10200 O1      1.572356   29.406614   -8.111929 O    1649 MOH    -0.6497 ****
10201 HO1     1.986893   28.867318   -7.435228 H    1649 MOH     0.4215 ****
10202 HC1    11.636148   32.120241   -2.930958 H    1650 MOH     0.0372 ****
10203 C1     11.596888   31.050630   -3.136019 C    1650 MOH     0.1166 ****
10204 HC2    10.818620   30.622378   -2.504572 H    1650 MOH     0.0372 ****
10205 HC3    12.565682   30.614213   -2.892067 H    1650 MOH     0.0372 ****
10206 O1     11.308213   30.758733   -4.504270 O    1650 MOH    -0.6497 ****
10207 HO1    11.737762   29.944277   -4.776506 H    1650 MOH     0.4215 ****
10208 HC1    15.797689   30.800374   -5.177436 H    1651 MOH     0.0372 ****
10209 C1     15.275187   31.729547   -4.949748 C    1651 MOH     0.1166 ****
10210 HC2    14.242885   31.516441   -4.671147 H    1651 MOH     0.0372 ****
10211 HC3    15.315602   32.375804   -5.825853 H    1651 MOH     0.0372 ****
10212 O1     15.962811   32.292930   -3.883431 O    1651 MOH    -0.6497 ****
10213 HO1    16.425269   31.577679   -3.440782 H    1651 MOH     0.4215 ****
10214 HC1     9.197998   26.014479    4.462551 H    1652 MOH     0.0372 ****
10215 C1      9.449145   25.493963    5.386739 C    1652 MOH     0.1166 ****
10216 HC2     8.782306   24.640316    5.507655 H    1652 MOH     0.0372 ****
10217 HC3     9.326170   26.163898    6.237389 H    1652 MOH     0.0372 ****
10218 O1     10.789175   25.063261    5.289866 O    1652 MOH    -0.6497 ****
10219 HO1    10.979124   24.507635    6.048591 H    1652 MOH     0.4215 ****
10220 HC1    10.670819   32.944902   -5.558567 H    1653 MOH     0.0372 ****
10221 C1      9.733779   33.200874   -6.051420 C    1653 MOH     0.1166 ****
10222 HC2     8.895467   32.868968   -5.438358 H    1653 MOH     0.0372 ****
10223 HC3     9.715304   32.701994   -7.020156 H    1653 MOH     0.0372 ****
10224 O1      9.703180   34.584427   -6.268502 O    1653 MOH    -0.6497 ****
10225 HO1     8.786925   34.825702   -6.420530 H    1653 MOH     0.4215 ****
10226 HC1     7.341240   28.234942   -7.266229 H    1654 MOH     0.0372 ****
10227 C1      7.646658   27.254737   -7.633218 C    1654 MOH     0.1166 ****
10228 HC2     8.595822   27.334346   -8.162841 H    1654 MOH     0.0372 ****
10229 HC3     6.879937   26.862411   -8.300020 H    1654 MOH     0.0372 ****
10230 O1      7.800233   26.334138   -6.559123 O    1654 MOH    -0.6497 ****
10231 HO1     8.649515   25.900170   -6.667310 H    1654 MOH     0.4215 ****
10232 HC1    13.182292   25.586635   -0.593263 H    1655 MOH     0.0372 ****
10233 C1     14.053514   26.090005   -1.012577 C    1655 MOH     0.1166 ****
10234 HC2    13.755601   27.039182   -1.455933 H    1655 MOH     0.0372 ****
10235 HC3    14.492300   25.478449   -1.801708 H    1655 MOH     0.0372 ****
10236 O1     15.022308   26.365164   -0.026870 O    1655 MOH    -0.6497 ****
10237 HO1    15.452434   25.527031    0.156271 H    1655 MOH     0.4215 ****
10238 HC1     4.627116   31.910401  -12.341135 H    1656 MOH     0.0372 ****
10239 C1      5.550877   32.098603  -12.889143 C    1656 MOH     0.1166 ****
10240 HC2     6.141506   31.183719  -12.851666 H    1656 MOH     0.0372 ****
10241 HC3     6.073379   32.922040  -12.401946 H    1656 MOH     0.0372 ****
10242 O1      5.277790   32.450922  -14.243252 O    1656 MOH    -0.6497 ****
10243 HO1     6.059522   32.873050  -14.606705 H    1656 MOH     0.4215 ****
10244 HC1     2.213792   27.172271   -1.430477 H    1657 MOH     0.0372 ****
10245 C1      3.070580   26.914258   -2.054145 C    1657 MOH     0.1166 ****
10246 HC2     3.256486   27.707485   -2.777516 H    1657 MOH     0.0372 ****
10247 HC3     2.824628   26.010397   -2.611345 H    1657 MOH     0.0372 ****
10248 O1      4.233940   26.723606   -1.252993 O    1657 MOH    -0.6497 ****
10249 HO1     4.930225   26.375779   -1.814436 H    1657 MOH     0.4215 ****
10250 HC1     8.268464   26.832201   -2.247185 H    1658 MOH     0.0372 ****
10251 C1      7.770211   26.056529   -2.827013 C    1658 MOH     0.1166 ****
10252 HC2     8.497095   25.311067   -3.149454 H    1658 MOH     0.0372 ****
10253 HC3     7.307753   26.530505   -3.693219 H    1658 MOH     0.0372 ****
10254 O1      6.795066   25.425785   -2.030104 O    1658 MOH    -0.6497 ****
10255 HO1     7.266761   25.056729   -1.280570 H    1658 MOH     0.4215 ****
10256 HC1    11.609013   32.884073    4.939848 H    1659 MOH     0.0372 ****
10257 C1     10.986629   33.778545    4.930655 C    1659 MOH     0.1166 ****
10258 HC2    11.430612   34.565648    5.540182 H    1659 MOH     0.0372 ****
10259 HC3    10.014949   33.500528    5.340070 H    1659 MOH     0.0372 ****
10260 O1     10.807073   34.231293    3.609073 O    1659 MOH    -0.6497 ****
10261 HO1    11.664438   34.506860    3.276026 H    1659 MOH     0.4215 ****
10262 HC1     7.237894   33.063702    2.780344 H    1660 MOH     0.0372 ****
10263 C1      7.691691   33.943069    3.237135 C    1660 MOH     0.1166 ****
10264 HC2     8.528849   34.259870    2.614881 H    1660 MOH     0.0372 ****
10265 HC3     7.995377   33.694038    4.253954 H    1660 MOH     0.0372 ****
10266 O1      6.741373   34.940828    3.201779 O    1660 MOH    -0.6497 ****
10267 HO1     6.413438   34.996350    2.300925 H    1660 MOH     0.4215 ****
10268 HC1    10.860189   29.123290    4.623064 H    1661 MOH     0.0372 ****
10269 C1     11.682914   28.432534    4.437802 C    1661 MOH     0.1166 ****
10270 HC2    11.958310   28.553784    3.390577 H    1661 MOH     0.0372 ****
10271 HC3    11.374609   27.392725    4.544575 H    1661 MOH     0.0372 ****
10272 O1     12.772951   28.743211    5.322393 O    1661 MOH    -0.6497 ****
10273 HO1    13.383787   28.002648    5.335121 H    1661 MOH     0.4215 ****
10274 HC1     6.607427   30.464794   -4.572153 H    1662 MOH     0.0372 ****
10275 C1      7.534652   30.288022   -4.028387 C    1662 MOH     0.1166 ****
10276 HC2     7.468834   29.363340   -3.454924 H    1662 MOH     0.0372 ****
10277 HC3     7.758087   31.124523   -3.365828 H    1662 MOH     0.0372 ****
10278 O1      8.538087   30.185960   -4.958940 O    1662 MOH    -0.6497 ****
10279 HO1     9.348109   30.526848   -4.572153 H    1662 MOH     0.4215 ****
10280 HC1     4.510491   30.608905   -9.845048 H    1663 MOH     0.0372 ****
10281 C1      4.790506   29.700553   -9.311182 C    1663 MOH     0.1166 ****
10282 HC2     5.598797   29.204940   -9.848583 H    1663 MOH     0.0372 ****
10283 HC3     3.959699   28.994692   -9.287848 H    1663 MOH     0.0372 ****
10284 O1      5.228138   29.961832   -7.991721 O    1663 MOH    -0.6497 ****
10285 HO1     4.880573   29.257195   -7.440178 H    1663 MOH     0.4215 ****
10286 HC1    15.694343   30.081040    3.558161 H    1664 MOH     0.0372 ****
10287 C1     14.862959   30.764448    3.388456 C    1664 MOH     0.1166 ****
10288 HC2    13.940931   30.304352    3.745545 H    1664 MOH     0.0372 ****
10289 HC3    14.792522   30.952651    2.317189 H    1664 MOH     0.0372 ****
10290 O1     15.190894   31.985110    4.040408 O    1664 MOH    -0.6497 ****
10291 HO1    15.804040   31.787927    4.752465 H    1664 MOH     0.4215 ****
10292 HC1     8.200914   32.310484   12.041321 H    1665 MOH     0.0372 ****
10293 C1      7.309485   32.937146   12.009501 C    1665 MOH     0.1166 ****
10294 HC2     6.420943   32.306402   11.969196 H    1665 MOH     0.0372 ****
10295 HC3     7.318723   33.555233   11.111476 H    1665 MOH     0.0372 ****
10296 O1      7.319878   33.784669   13.130973 O    1665 MOH    -0.6497 ****
10297 HO1     8.075629   34.364790   13.014300 H    1665 MOH     0.4215 ****
10298 HC1    15.454166   32.907343   -0.419314 H    1666 MOH     0.0372 ****
10299 C1     14.444380   32.586460   -0.675287 C    1666 MOH     0.1166 ****
10300 HC2    13.746941   33.017162    0.043841 H    1666 MOH     0.0372 ****
10301 HC3    14.362974   31.500111   -0.640639 H    1666 MOH     0.0372 ****
10302 O1     14.089310   33.045740   -1.947372 O    1666 MOH    -0.6497 ****
10303 HO1    14.688022   32.638308   -2.576697 H    1666 MOH     0.4215 ****
10304 HC1     9.857909   33.572380   10.627815 H    1667 MOH     0.0372 ****
10305 C1     10.082499   34.638316   10.678019 C    1667 MOH     0.1166 ****
10306 HC2     9.723387   35.186185    9.806864 H    1667 MOH     0.0372 ****
10307 HC3    11.168494   34.684856   10.605894 H    1667 MOH     0.0372 ****
10308 O1      9.721655   35.236400   11.944448 O    1667 MOH    -0.6497 ****
10309 HO1     9.649486   36.185169   11.818583 H    1667 MOH     0.4215 ****
10310 HC1     8.944541   20.121415    1.995455 H    1668 MOH     0.0372 ****
10311 C1      9.525933   20.878716    2.522250 C    1668 MOH     0.1166 ****
10312 HC2    10.579597   20.634583    2.385071 H    1668 MOH     0.0372 ****
10313 HC3     9.296148   20.889330    3.587153 H    1668 MOH     0.0372 ****
10314 O1      9.397761   22.138978    1.969999 O    1668 MOH    -0.6497 ****
10315 HO1    10.196237   22.615404    2.211123 H    1668 MOH     0.4215 ****
10316 HC1     4.099995   31.478474    7.077432 H    1669 MOH     0.0372 ****
10317 C1      4.445251   30.635442    6.479926 C    1669 MOH     0.1166 ****
10318 HC2     5.185414   30.103494    7.078846 H    1669 MOH     0.0372 ****
10319 HC3     4.886924   31.021236    5.561395 H    1669 MOH     0.0372 ****
10320 O1      3.392741   29.717699    6.146172 O    1669 MOH    -0.6497 ****
10321 HO1     3.671601   29.204531    5.384618 H    1669 MOH     0.4215 ****
10322 HC1     9.165089   19.798899   -2.667207 H    1670 MOH     0.0372 ****
10323 C1      9.132180   20.884023   -2.766202 C    1670 MOH     0.1166 ****
10324 HC2     9.577317   21.353100   -1.888682 H    1670 MOH     0.0372 ****
10325 HC3     8.094682   21.209805   -2.841155 H    1670 MOH     0.0372 ****
10326 O1      9.818072   21.261244   -3.931514 O    1670 MOH    -0.6497 ****
10327 HO1     9.919686   22.214504   -3.891209 H    1670 MOH     0.4215 ****
10328 HC1    17.598445   28.615837   -1.484217 H    1671 MOH     0.0372 ****
10329 C1     16.692582   28.940395   -1.995455 C    1671 MOH     0.1166 ****
10330 HC2    15.806927   28.547660   -1.496238 H    1671 MOH     0.0372 ****
10331 HC3    16.700088   28.592159   -3.028538 H    1671 MOH     0.0372 ****
10332 O1     16.599629   30.332521   -1.981313 O    1671 MOH    -0.6497 ****
10333 HO1    16.869828   30.617887   -1.105208 H    1671 MOH     0.4215 ****
10334 HC1    10.132728   33.179645    0.500631 H    1672 MOH     0.0372 ****
10335 C1     10.796104   32.357841    0.770039 C    1672 MOH     0.1166 ****
10336 HC2    11.812240   32.744044    0.847821 H    1672 MOH     0.0372 ****
10337 HC3    10.782247   31.575229    0.011314 H    1672 MOH     0.0372 ****
10338 O1     10.417939   31.930813    2.056974 O    1672 MOH    -0.6497 ****
10339 HO1    10.471633   32.699953    2.628316 H    1672 MOH     0.4215 ****
10340 HC1     4.619033   32.142694   -4.376991 H    1673 MOH     0.0372 ****
10341 C1      3.988567   31.829160   -3.545434 C    1673 MOH     0.1166 ****
10342 HC2     3.012267   31.516441   -3.915958 H    1673 MOH     0.0372 ****
10343 HC3     3.818248   32.656271   -2.855297 H    1673 MOH     0.0372 ****
10344 O1      4.590743   30.775063   -2.849640 O    1673 MOH    -0.6497 ****
10345 HO1     3.940069   30.420703   -2.240114 H    1673 MOH     0.4215 ****
10346 HC1    -3.380732   26.807297   -1.180161 H    1674 MOH     0.0372 ****
10347 C1     -2.736987   27.591542   -1.576848 C    1674 MOH     0.1166 ****
10348 HC2    -2.702923   28.392934   -0.839336 H    1674 MOH     0.0372 ****
10349 HC3    -3.135936   28.031634   -2.491845 H    1674 MOH     0.0372 ****
10350 O1     -1.425247   27.126956   -1.807365 O    1674 MOH    -0.6497 ****
10351 HO1    -0.982997   27.914058   -2.132634 H    1674 MOH     0.4215 ****
10352 HC1     3.389277   33.947968    2.998133 H    1675 MOH     0.0372 ****
10353 C1      3.552090   33.723840    4.052429 C    1675 MOH     0.1166 ****
10354 HC2     4.119625   32.797116    4.144353 H    1675 MOH     0.0372 ****
10355 HC3     2.568285   33.606264    4.506391 H    1675 MOH     0.0372 ****
10356 O1      4.244910   34.800391    4.644277 O    1675 MOH    -0.6497 ****
10357 HO1     5.083223   34.891022    4.186072 H    1675 MOH     0.4215 ****
10358 HC1     1.324672   27.881807    7.757668 H    1676 MOH     0.0372 ****
10359 C1      0.931497   28.316591    8.676200 C    1676 MOH     0.1166 ****
10360 HC2     0.747322   29.381303    8.534779 H    1676 MOH     0.0372 ****
10361 HC3     1.630668   28.172480    9.499979 H    1676 MOH     0.0372 ****
10362 O1     -0.233019   27.655637    9.005005 O    1676 MOH    -0.6497 ****
10363 HO1    -0.657371   28.105119    9.739689 H    1676 MOH     0.4215 ****
10364 HC1     3.111572   33.843048   -6.337798 H    1677 MOH     0.0372 ****
10365 C1      2.978204   32.820386   -6.690645 C    1677 MOH     0.1166 ****
10366 HC2     1.979388   32.742819   -7.119151 H    1677 MOH     0.0372 ****
10367 HC3     3.051527   32.103502   -5.873229 H    1677 MOH     0.0372 ****
10368 O1      3.898500   32.543186   -7.702514 O    1677 MOH    -0.6497 ****
10369 HO1     4.014547   31.595233   -7.794438 H    1677 MOH     0.4215 ****
10370 HC1     5.298574   24.568464   -7.380074 H    1678 MOH     0.0372 ****
10371 C1      4.561875   24.914250   -6.655289 C    1678 MOH     0.1166 ****
10372 HC2     4.291098   24.106327   -5.974345 H    1678 MOH     0.0372 ****
10373 HC3     3.653126   25.213904   -7.175720 H    1678 MOH     0.0372 ****
10374 O1      5.001816   25.995700   -5.861208 O    1678 MOH    -0.6497 ****
10375 HO1     5.949248   25.927114   -5.725444 H    1678 MOH     0.4215 ****
10376 HC1     4.135791   22.317791   -1.617860 H    1679 MOH     0.0372 ****
10377 C1      5.170980   22.621936   -1.774131 C    1679 MOH     0.1166 ****
10378 HC2     5.759877   21.719299   -1.941715 H    1679 MOH     0.0372 ****
10379 HC3     5.543948   23.178787   -0.915703 H    1679 MOH     0.0372 ****
10380 O1      5.168671   23.353517   -2.950757 O    1679 MOH    -0.6497 ****
10381 HO1     5.806065   24.062644   -2.841155 H    1679 MOH     0.4215 ****
10382 HC1    17.198341   27.509893    2.952878 H    1680 MOH     0.0372 ****
10383 C1     17.582279   28.106752    2.125563 C    1680 MOH     0.1166 ****
10384 HC2    18.269903   27.489480    1.547150 H    1680 MOH     0.0372 ****
10385 HC3    18.083419   28.968564    2.567505 H    1680 MOH     0.0372 ****
10386 O1     16.517067   28.546435    1.338553 O    1680 MOH    -0.6497 ****
10387 HO1    15.987637   27.790359    1.076924 H    1680 MOH     0.4215 ****
10388 HC1     9.251114   34.248847   -9.228451 H    1681 MOH     0.0372 ****
10389 C1      8.326777   34.764057   -9.490080 C    1681 MOH     0.1166 ****
10390 HC2     7.613749   34.717108   -8.666301 H    1681 MOH     0.0372 ****
10391 HC3     7.890877   34.317841  -10.383156 H    1681 MOH     0.0372 ****
10392 O1      8.564645   36.113317   -9.769387 O    1681 MOH    -0.6497 ****
10393 HO1     9.069249   36.143527  -10.585389 H    1681 MOH     0.4215 ****
10394 HC1     0.857019   28.387627   12.975409 H    1682 MOH     0.0372 ****
10395 C1      1.751334   27.945085   13.415230 C    1682 MOH     0.1166 ****
10396 HC2     1.817152   28.218204   14.468112 H    1682 MOH     0.0372 ****
10397 HC3     2.641608   28.314958   12.906113 H    1682 MOH     0.0372 ****
10398 O1      1.699950   26.532546   13.299264 O    1682 MOH    -0.6497 ****
10399 HO1     2.605235   26.224319   13.387653 H    1682 MOH     0.4215 ****
10400 HC1    -0.489362   24.029168   -8.688928 H    1683 MOH     0.0372 ****
10401 C1      0.024480   24.338212   -7.778882 C    1683 MOH     0.1166 ****
10402 HC2     1.107589   24.312084   -7.894847 H    1683 MOH     0.0372 ****
10403 HC3    -0.278629   23.698895   -6.948739 H    1683 MOH     0.0372 ****
10404 O1     -0.414884   25.595616   -7.496039 O    1683 MOH    -0.6497 ****
10405 HO1    -0.746860   25.957733   -8.321233 H    1683 MOH     0.4215 ****
10406 HC1     4.587856   32.130447   10.777721 H    1684 MOH     0.0372 ****
10407 C1      4.177360   31.173921   11.100869 C    1684 MOH     0.1166 ****
10408 HC2     4.956206   30.411313   11.122082 H    1684 MOH     0.0372 ****
10409 HC3     3.392164   30.895088   10.398712 H    1684 MOH     0.0372 ****
10410 O1      3.581535   31.318441   12.356691 O    1684 MOH    -0.6497 ****
10411 HO1     4.202186   31.767514   12.935104 H    1684 MOH     0.4215 ****
10412 HC1     1.362200   27.237999   -4.955404 H    1685 MOH     0.0372 ****
10413 C1      0.480009   27.821386   -4.694482 C    1685 MOH     0.1166 ****
10414 HC2     0.784273   28.819961   -4.383355 H    1685 MOH     0.0372 ****
10415 HC3    -0.055195   27.331488   -3.881309 H    1685 MOH     0.0372 ****
10416 O1     -0.340983   27.876500   -5.861915 O    1685 MOH    -0.6497 ****
10417 HO1    -0.431627   26.987743   -6.214762 H    1685 MOH     0.4215 ****
10418 HC1     8.898931   18.245514    0.495682 H    1686 MOH     0.0372 ****
10419 C1      9.736666   18.473725   -0.164049 C    1686 MOH     0.1166 ****
10420 HC2    10.094046   19.475158    0.071418 H    1686 MOH     0.0372 ****
10421 HC3     9.386214   18.428818   -1.195010 H    1686 MOH     0.0372 ****
10422 O1     10.817466   17.531896    0.040305 O    1686 MOH    -0.6497 ****
10423 HO1    11.650582   17.920140   -0.237588 H    1686 MOH     0.4215 ****
10424 HC1     3.092519   29.100836    0.111016 H    1687 MOH     0.0372 ****
10425 C1      2.780750   30.144319    0.075660 C    1687 MOH     0.1166 ****
10426 HC2     3.586731   30.801599    0.403758 H    1687 MOH     0.0372 ****
10427 HC3     1.937818   30.267610    0.754483 H    1687 MOH     0.0372 ****
10428 O1      2.327530   30.490513   -1.218345 O    1687 MOH    -0.6497 ****
10429 HO1     2.116220   31.426219   -1.188647 H    1687 MOH     0.4215 ****
10430 HC1    -1.182182   28.271684    0.927724 H    1688 MOH     0.0372 ****
10431 C1     -0.410842   27.978562    1.640488 C    1688 MOH     0.1166 ****
10432 HC2     0.486937   27.722182    1.077631 H    1688 MOH     0.0372 ****
10433 HC3    -0.741087   27.090213    2.179303 H    1688 MOH     0.0372 ****
10434 O1     -0.150458   29.055929    2.549120 O    1688 MOH    -0.6497 ****
10435 HO1    -0.816720   29.031026    3.239963 H    1688 MOH     0.4215 ****
10436 HC1    -1.311509   28.882424    6.810852 H    1689 MOH     0.0372 ****
10437 C1     -0.828267   28.731780    5.845652 C    1689 MOH     0.1166 ****
10438 HC2    -0.372737   27.742186    5.825853 H    1689 MOH     0.0372 ****
10439 HC3    -0.067896   29.500920    5.707059 H    1689 MOH     0.0372 ****
10440 O1     -1.859414   28.781178    4.859238 O    1689 MOH    -0.6497 ****
10441 HO1    -2.372101   29.582161    4.989345 H    1689 MOH     0.4215 ****
10442 HC1     8.123549   32.917550   -1.972828 H    1690 MOH     0.0372 ****
10443 C1      8.905282   33.590751   -2.324260 C    1690 MOH     0.1166 ****
10444 HC2     9.464734   33.155967   -3.152282 H    1690 MOH     0.0372 ****
10445 HC3     9.590596   33.795692   -1.502602 H    1690 MOH     0.0372 ****
10446 O1      8.331395   34.790184   -2.769737 O    1690 MOH    -0.6497 ****
10447 HO1     8.526540   35.433584   -2.083844 H    1690 MOH     0.4215 ****
10448 HC1   -21.771417  -18.152515  -15.906226 H    1691 MOH     0.0372 ****
10449 C1    -22.807760  -18.013711  -15.599341 C    1691 MOH     0.1166 ****
10450 HC2   -23.371254  -17.649554  -16.457769 H    1691 MOH     0.0372 ****
10451 HC3   -22.877620  -17.263759  -14.810917 H    1691 MOH     0.0372 ****
10452 O1    -23.333149  -19.256419  -15.182148 O    1691 MOH    -0.6497 ****
10453 HO1   -24.095829  -19.104142  -14.619998 H    1691 MOH     0.4215 ****
10454 HC1   -15.163643  -27.454453   -7.308514 H    1692 MOH     0.0372 ****
10455 C1    -15.102444  -26.674698   -6.550496 C    1692 MOH     0.1166 ****
10456 HC2   -14.742177  -27.120506   -5.622772 H    1692 MOH     0.0372 ****
10457 HC3   -16.095486  -26.249304   -6.404832 H    1692 MOH     0.0372 ****
10458 O1    -14.231222  -25.652036   -6.978295 O    1692 MOH    -0.6497 ****
10459 HO1   -13.344412  -26.012111   -7.044763 H    1692 MOH     0.4215 ****
10460 HC1    -8.905166  -22.705300  -13.089112 H    1693 MOH     0.0372 ****
10461 C1     -8.471576  -22.512199  -12.108355 C    1693 MOH     0.1166 ****
10462 HC2    -8.185787  -21.461368  -12.057443 H    1693 MOH     0.0372 ****
10463 HC3    -7.583611  -23.131512  -11.981783 H    1693 MOH     0.0372 ****
10464 O1     -9.425936  -22.826958  -11.100728 O    1693 MOH    -0.6497 ****
10465 HO1    -9.225018  -23.718573  -10.807986 H    1693 MOH     0.4215 ****
10466 HC1    -4.835424  -24.316656  -17.704398 H    1694 MOH     0.0372 ****
10467 C1     -5.029991  -23.575277  -16.929409 C    1694 MOH     0.1166 ****
10468 HC2    -6.094047  -23.533228  -16.696771 H    1694 MOH     0.0372 ****
10469 HC3    -4.728614  -22.586908  -17.276598 H    1694 MOH     0.0372 ****
10470 O1     -4.360265  -23.905550  -15.718135 O    1694 MOH    -0.6497 ****
10471 HO1    -4.577926  -24.800022  -15.445899 H    1694 MOH     0.4215 ****
10472 HC1   -20.721794  -19.603838  -11.237200 H    1695 MOH     0.0372 ****
10473 C1    -20.117886  -19.052295  -10.516658 C    1695 MOH     0.1166 ****
10474 HC2   -19.306131  -19.687529  -10.163104 H    1695 MOH     0.0372 ****
10475 HC3   -20.766250  -18.766521   -9.687929 H    1695 MOH     0.0372 ****
10476 O1    -19.613281  -17.928387  -11.172146 O    1695 MOH    -0.6497 ****
10477 HO1   -18.800372  -17.666700  -10.733032 H    1695 MOH     0.4215 ****
10478 HC1   -22.659959  -24.925354   -6.852430 H    1696 MOH     0.0372 ****
10479 C1    -23.680137  -25.218068   -6.604236 C    1696 MOH     0.1166 ****
10480 HC2   -23.841217  -25.160505   -5.528727 H    1696 MOH     0.0372 ****
10481 HC3   -23.888560  -26.240322   -6.921020 H    1696 MOH     0.0372 ****
10482 O1    -24.566369  -24.325638   -7.205277 O    1696 MOH    -0.6497 ****
10483 HO1   -24.114881  -23.949233   -7.964709 H    1696 MOH     0.4215 ****
10484 HC1    -9.952479  -19.952482  -16.175633 H    1697 MOH     0.0372 ****
10485 C1     -9.903982  -21.040056  -16.226545 C    1697 MOH     0.1166 ****
10486 HC2   -10.282146  -21.394823  -17.184675 H    1697 MOH     0.0372 ****
10487 HC3   -10.510777  -21.486679  -15.438828 H    1697 MOH     0.0372 ****
10488 O1     -8.567416  -21.474432  -16.153006 O    1697 MOH    -0.6497 ****
10489 HO1    -8.599748  -22.433815  -16.131793 H    1697 MOH     0.4215 ****
10490 HC1   -28.061071  -22.138652  -10.648180 H    1698 MOH     0.0372 ****
10491 C1    -27.020685  -22.111299  -10.974156 C    1698 MOH     0.1166 ****
10492 HC2   -26.436407  -22.751024  -10.311597 H    1698 MOH     0.0372 ****
10493 HC3   -26.679471  -21.077614  -10.920416 H    1698 MOH     0.0372 ****
10494 O1    -26.953713  -22.593440  -12.297153 O    1698 MOH    -0.6497 ****
10495 HO1   -27.548383  -23.346250  -12.340993 H    1698 MOH     0.4215 ****
10496 HC1    -5.156431  -22.286846  -13.922791 H    1699 MOH     0.0372 ****
10497 C1     -5.073870  -21.347058  -13.376905 C    1699 MOH     0.1166 ****
10498 HC2    -5.900635  -20.691411  -13.649848 H    1699 MOH     0.0372 ****
10499 HC3    -4.116623  -20.884921  -13.621564 H    1699 MOH     0.0372 ****
10500 O1     -5.114861  -21.705092  -12.035523 O    1699 MOH    -0.6497 ****
10501 HO1    -4.890849  -20.962080  -11.471252 H    1699 MOH     0.4215 ****
10502 HC1   -17.249032  -17.662617  -14.179471 H    1700 MOH     0.0372 ****
10503 C1    -17.914717  -16.803663  -14.094618 C    1700 MOH     0.1166 ****
10504 HC2   -18.956834  -17.123730  -14.101689 H    1700 MOH     0.0372 ****
10505 HC3   -17.779617  -16.179043  -14.977087 H    1700 MOH     0.0372 ****
10506 O1    -17.688973  -16.006762  -12.891122 O    1700 MOH    -0.6497 ****
10507 HO1   -17.761719  -16.573819  -12.121083 H    1700 MOH     0.4215 ****
10508 HC1   -17.174554  -28.316673   -5.229620 H    1701 MOH     0.0372 ****
10509 C1    -16.874909  -29.363830   -5.244470 C    1701 MOH     0.1166 ****
10510 HC2   -16.240978  -29.552441   -6.111382 H    1701 MOH     0.0372 ****
10511 HC3   -17.742667  -30.017844   -5.323666 H    1701 MOH     0.0372 ****
10512 O1    -16.169964  -29.674915   -4.050873 O    1701 MOH    -0.6497 ****
10513 HO1   -15.735797  -30.523255   -4.169667 H    1701 MOH     0.4215 ****
10514 HC1   -20.308411  -13.408670  -11.445796 H    1702 MOH     0.0372 ****
10515 C1    -20.762786  -13.110649  -12.390491 C    1702 MOH     0.1166 ****
10516 HC2   -21.843585  -13.245371  -12.342408 H    1702 MOH     0.0372 ****
10517 HC3   -20.340165  -13.735269  -13.178208 H    1702 MOH     0.0372 ****
10518 O1    -20.481039  -11.753223  -12.649999 O    1702 MOH    -0.6497 ****
10519 HO1   -20.750661  -11.558897  -13.550853 H    1702 MOH     0.4215 ****
10520 HC1   -19.267449  -10.495002   -8.322506 H    1703 MOH     0.0372 ****
10521 C1    -19.609240  -11.164529   -9.111637 C    1703 MOH     0.1166 ****
10522 HC2   -20.107493  -12.040630   -8.695858 H    1703 MOH     0.0372 ****
10523 HC3   -18.736864  -11.482555   -9.682272 H    1703 MOH     0.0372 ****
10524 O1    -20.390395  -10.434581  -10.033704 O    1703 MOH    -0.6497 ****
10525 HO1   -20.363259  -10.921622  -10.860312 H    1703 MOH     0.4215 ****
10526 HC1   -16.500786  -27.200930  -12.653534 H    1704 MOH     0.0372 ****
10527 C1    -16.641082  -27.355248  -13.722680 C    1704 MOH     0.1166 ****
10528 HC2   -16.837381  -26.400764  -14.211998 H    1704 MOH     0.0372 ****
10529 HC3   -17.475353  -28.034165  -13.898749 H    1704 MOH     0.0372 ****
10530 O1    -15.465597  -27.909650  -14.274223 O    1704 MOH    -0.6497 ****
10531 HO1   -14.818965  -28.010487  -13.572066 H    1704 MOH     0.4215 ****
10532 HC1   -13.737588  -19.164563  -11.363065 H    1705 MOH     0.0372 ****
10533 C1    -13.254923  -20.130478  -11.510143 C    1705 MOH     0.1166 ****
10534 HC2   -14.027995  -20.884513  -11.657928 H    1705 MOH     0.0372 ****
10535 HC3   -12.690274  -20.372978  -10.610703 H    1705 MOH     0.0372 ****
10536 O1    -12.346751  -20.102717  -12.633028 O    1705 MOH    -0.6497 ****
10537 HO1   -11.635455  -19.498510  -12.403926 H    1705 MOH     0.4215 ****
10538 HC1   -10.039082  -33.289954  -12.408168 H    1706 MOH     0.0372 ****
10539 C1    -10.205359  -33.202997  -11.334073 C    1706 MOH     0.1166 ****
10540 HC2   -10.133190  -32.146859  -11.074565 H    1706 MOH     0.0372 ****
10541 HC3    -9.418430  -33.756990  -10.821421 H    1706 MOH     0.0372 ****
10542 O1    -11.530955  -33.721880  -11.100021 O    1706 MOH    -0.6497 ****
10543 HO1   -11.842147  -33.373236  -10.261392 H    1706 MOH     0.4215 ****
10544 HC1   -15.243317  -14.363155  -20.235133 H    1707 MOH     0.0372 ****
10545 C1    -15.824131  -13.981851  -19.395091 C    1707 MOH     0.1166 ****
10546 HC2   -15.526796  -12.974702  -19.103055 H    1707 MOH     0.0372 ****
10547 HC3   -15.616285  -14.637089  -18.548684 H    1707 MOH     0.0372 ****
10548 O1    -17.203421  -14.025533  -19.680055 O    1707 MOH    -0.6497 ****
10549 HO1   -17.608721  -14.700368  -19.130633 H    1707 MOH     0.4215 ****
10550 HC1   -10.445536  -27.151941  -13.589744 H    1708 MOH     0.0372 ****
10551 C1    -10.462280  -28.159089  -14.007644 C    1708 MOH     0.1166 ****
10552 HC2    -9.960562  -28.817594  -13.299830 H    1708 MOH     0.0372 ****
10553 HC3    -9.910910  -28.187667  -14.948096 H    1708 MOH     0.0372 ****
10554 O1    -11.805196  -28.594690  -14.156843 O    1708 MOH    -0.6497 ****
10555 HO1   -12.297099  -28.333819  -13.374076 H    1708 MOH     0.4215 ****
10556 HC1   -16.310838  -23.360947  -14.458071 H    1709 MOH     0.0372 ****
10557 C1    -17.374317  -23.160089  -14.589593 C    1709 MOH     0.1166 ****
10558 HC2   -17.956286  -24.081097  -14.562723 H    1709 MOH     0.0372 ****
10559 HC3   -17.539439  -22.689379  -15.559036 H    1709 MOH     0.0372 ****
10560 O1    -17.824650  -22.269699  -13.610250 O    1709 MOH    -0.6497 ****
10561 HO1   -17.714376  -21.375227  -13.940469 H    1709 MOH     0.4215 ****
10562 HC1   -12.597898  -20.433399  -17.254678 H    1710 MOH     0.0372 ****
10563 C1    -13.002043  -20.087612  -18.205737 C    1710 MOH     0.1166 ****
10564 HC2   -13.935041  -20.610987  -18.417869 H    1710 MOH     0.0372 ****
10565 HC3   -12.280933  -20.232540  -19.009717 H    1710 MOH     0.0372 ****
10566 O1    -13.248572  -18.721614  -18.051588 O    1710 MOH    -0.6497 ****
10567 HO1   -12.424116  -18.266008  -17.863497 H    1710 MOH     0.4215 ****
10568 HC1   -15.645730  -28.114182  -10.631916 H    1711 MOH     0.0372 ****
10569 C1    -14.891711  -28.867808  -10.859604 C    1711 MOH     0.1166 ****
10570 HC2   -15.377840  -29.757381  -11.259120 H    1711 MOH     0.0372 ****
10571 HC3   -14.402695  -29.157256   -9.929759 H    1711 MOH     0.0372 ****
10572 O1    -13.957558  -28.325655  -11.804299 O    1711 MOH    -0.6497 ****
10573 HO1   -13.741052  -27.427917  -11.544791 H    1711 MOH     0.4215 ****
10574 HC1   -10.358356  -18.546067  -18.921329 H    1712 MOH     0.0372 ****
10575 C1     -9.938045  -17.662617  -18.440496 C    1712 MOH     0.1166 ****
10576 HC2    -9.684589  -16.920830  -19.197808 H    1712 MOH     0.0372 ****
10577 HC3    -9.051235  -17.945534  -17.874104 H    1712 MOH     0.0372 ****
10578 O1    -10.943212  -17.166188  -17.617424 O    1712 MOH    -0.6497 ****
10579 HO1   -10.586987  -16.969820  -16.748390 H    1712 MOH     0.4215 ****
10580 HC1   -22.524281  -23.522205  -13.460343 H    1713 MOH     0.0372 ****
10581 C1    -21.492556  -23.805938  -13.666111 C    1713 MOH     0.1166 ****
10582 HC2   -21.221779  -24.631824  -13.009209 H    1713 MOH     0.0372 ****
10583 HC3   -20.844192  -22.955148  -13.455394 H    1713 MOH     0.0372 ****
10584 O1    -21.354570  -24.125188  -15.027999 O    1713 MOH    -0.6497 ****
10585 HO1   -21.651328  -23.332370  -15.480547 H    1713 MOH     0.4215 ****
10586 HC1   -10.898756  -28.084380   -5.817226 H    1714 MOH     0.0372 ****
10587 C1    -10.823701  -27.042530   -6.126939 C    1714 MOH     0.1166 ****
10588 HC2    -9.785048  -26.817994   -6.370183 H    1714 MOH     0.0372 ****
10589 HC3   -11.185700  -26.441180   -5.291846 H    1714 MOH     0.0372 ****
10590 O1    -11.711666  -26.884946   -7.203155 O    1714 MOH    -0.6497 ****
10591 HO1   -11.344471  -27.405463   -7.920869 H    1714 MOH     0.4215 ****
10592 HC1   -23.233845  -19.767546  -12.263212 H    1715 MOH     0.0372 ****
10593 C1    -23.473445  -20.400330  -11.409027 C    1715 MOH     0.1166 ****
10594 HC2   -24.519027  -20.275815  -11.128305 H    1715 MOH     0.0372 ****
10595 HC3   -22.841247  -20.092919  -10.575348 H    1715 MOH     0.0372 ****
10596 O1    -23.171491  -21.750408  -11.725103 O    1715 MOH    -0.6497 ****
10597 HO1   -23.633949  -22.023526  -12.520598 H    1715 MOH     0.4215 ****
10598 HC1    -7.398859  -26.608154  -19.382362 H    1716 MOH     0.0372 ****
10599 C1     -7.921361  -25.678981  -19.154674 C    1716 MOH     0.1166 ****
10600 HC2    -8.953663  -25.892087  -18.876074 H    1716 MOH     0.0372 ****
10601 HC3    -7.880946  -25.032724  -20.030779 H    1716 MOH     0.0372 ****
10602 O1     -7.233737  -25.115598  -18.088357 O    1716 MOH    -0.6497 ****
10603 HO1    -6.771279  -25.830849  -17.645708 H    1716 MOH     0.4215 ****
10604 HC1   -13.998550  -31.394049   -9.742376 H    1717 MOH     0.0372 ****
10605 C1    -13.747403  -31.914565   -8.818187 C    1717 MOH     0.1166 ****
10606 HC2   -14.414242  -32.768212   -8.697272 H    1717 MOH     0.0372 ****
10607 HC3   -13.870378  -31.244630   -7.967538 H    1717 MOH     0.0372 ****
10608 O1    -12.407373  -32.345267   -8.915061 O    1717 MOH    -0.6497 ****
10609 HO1   -12.217424  -32.900893   -8.156335 H    1717 MOH     0.4215 ****
10610 HC1   -22.472320  -25.165813  -10.521608 H    1718 MOH     0.0372 ****
10611 C1    -23.482106  -24.766546  -10.429684 C    1718 MOH     0.1166 ****
10612 HC2   -24.094674  -25.507925   -9.916324 H    1718 MOH     0.0372 ****
10613 HC3   -23.883364  -24.574669  -11.425290 H    1718 MOH     0.0372 ****
10614 O1    -23.413978  -23.577727   -9.667423 O    1718 MOH    -0.6497 ****
10615 HO1   -23.079692  -22.884521  -10.241593 H    1718 MOH     0.4215 ****
10616 HC1   -10.014256  -31.821893  -14.798189 H    1719 MOH     0.0372 ****
10617 C1     -9.143034  -31.318523  -15.217503 C    1719 MOH     0.1166 ****
10618 HC2    -9.440947  -30.369345  -15.660859 H    1719 MOH     0.0372 ****
10619 HC3    -8.704248  -31.930079  -16.006635 H    1719 MOH     0.0372 ****
10620 O1     -8.174240  -31.043363  -14.231797 O    1719 MOH    -0.6497 ****
10621 HO1    -7.744114  -31.881497  -14.048656 H    1719 MOH     0.4215 ****
10622 HC1   -26.728546  -17.929612  -12.097749 H    1720 MOH     0.0372 ****
10623 C1    -25.865985  -17.466658  -12.577167 C    1720 MOH     0.1166 ****
10624 HC2   -25.079056  -17.351940  -11.831169 H    1720 MOH     0.0372 ****
10625 HC3   -26.182950  -16.474615  -12.899608 H    1720 MOH     0.0372 ****
10626 O1    -25.483202  -18.254169  -13.736115 O    1720 MOH    -0.6497 ****
10627 HO1   -26.177177  -18.208037  -14.397260 H    1720 MOH     0.4215 ****
10628 HC1   -20.042253  -22.492195   -5.837025 H    1721 MOH     0.0372 ****
10629 C1    -19.434303  -21.621401   -6.085220 C    1721 MOH     0.1166 ****
10630 HC2   -18.384680  -21.890845   -6.199771 H    1721 MOH     0.0372 ****
10631 HC3   -19.490883  -20.899210   -5.269925 H    1721 MOH     0.0372 ****
10632 O1    -19.829210  -21.059243   -7.295079 O    1721 MOH    -0.6497 ****
10633 HO1   -19.547463  -21.657735   -7.990872 H    1721 MOH     0.4215 ****
10634 HC1   -14.461585  -16.242322  -16.524944 H    1722 MOH     0.0372 ****
10635 C1    -15.476567  -16.625667  -16.628889 C    1722 MOH     0.1166 ****
10636 HC2   -16.197677  -15.808354  -16.607676 H    1722 MOH     0.0372 ****
10637 HC3   -15.711548  -17.320505  -15.822787 H    1722 MOH     0.0372 ****
10638 O1    -15.604161  -17.337652  -17.811171 O    1722 MOH    -0.6497 ****
10639 HO1   -14.883628  -17.970845  -17.842991 H    1722 MOH     0.4215 ****
10640 HC1   -11.587535  -24.524455   -9.265079 H    1723 MOH     0.0372 ****
10641 C1    -12.209919  -23.629983   -9.274271 C    1723 MOH     0.1166 ****
10642 HC2   -11.765937  -22.842880   -8.664745 H    1723 MOH     0.0372 ****
10643 HC3   -13.181599  -23.908000   -8.864856 H    1723 MOH     0.0372 ****
10644 O1    -12.389475  -23.177235  -10.595854 O    1723 MOH    -0.6497 ****
10645 HO1   -11.532110  -22.901668  -10.928901 H    1723 MOH     0.4215 ****
10646 HC1   -19.847108  -18.556681  -15.083153 H    1724 MOH     0.0372 ****
10647 C1    -19.665820  -19.594857  -14.803846 C    1724 MOH     0.1166 ****
10648 HC2   -20.325154  -20.232132  -15.392866 H    1724 MOH     0.0372 ****
10649 HC3   -19.890409  -19.749583  -13.748136 H    1724 MOH     0.0372 ****
10650 O1    -18.335605  -19.990449  -15.044970 O    1724 MOH    -0.6497 ****
10651 HO1   -18.156049  -19.882263  -15.981886 H    1724 MOH     0.4215 ****
10652 HC1   -15.958654  -24.344825  -11.424583 H    1725 MOH     0.0372 ****
10653 C1    -15.504857  -23.465459  -10.967792 C    1725 MOH     0.1166 ****
10654 HC2   -14.667699  -23.148658  -11.590046 H    1725 MOH     0.0372 ****
10655 HC3   -15.201171  -23.714490   -9.950972 H    1725 MOH     0.0372 ****
10656 O1    -16.455175  -22.467700  -11.003147 O    1725 MOH    -0.6497 ****
10657 HO1   -16.783110  -22.412178  -11.904001 H    1725 MOH     0.4215 ****
10658 HC1   -24.125851  -12.872232  -13.753793 H    1726 MOH     0.0372 ****
10659 C1    -25.033446  -12.935919  -13.154166 C    1726 MOH     0.1166 ****
10660 HC2   -25.644282  -13.782626  -13.466707 H    1726 MOH     0.0372 ****
10661 HC3   -25.582506  -12.003888  -13.286395 H    1726 MOH     0.0372 ****
10662 O1    -24.661632  -13.119222  -11.829755 O    1726 MOH    -0.6497 ****
10663 HO1   -24.134511  -13.921838  -11.831169 H    1726 MOH     0.4215 ****
10664 HC1    -8.595706  -21.025767   -6.047743 H    1727 MOH     0.0372 ****
10665 C1     -8.848586  -20.161097   -5.433974 C    1727 MOH     0.1166 ****
10666 HC2    -8.040873  -19.977793   -4.726160 H    1727 MOH     0.0372 ****
10667 HC3    -9.766573  -20.393798   -4.895159 H    1727 MOH     0.0372 ****
10668 O1     -9.040843  -19.052703   -6.290280 O    1727 MOH    -0.6497 ****
10669 HO1    -9.726158  -19.323780   -6.905463 H    1727 MOH     0.4215 ****
10670 HC1   -12.336359  -28.285238   -9.581862 H    1728 MOH     0.0372 ****
10671 C1    -11.513634  -28.975994   -9.767124 C    1728 MOH     0.1166 ****
10672 HC2   -11.238238  -28.854744  -10.814350 H    1728 MOH     0.0372 ****
10673 HC3   -11.821939  -30.015802   -9.660351 H    1728 MOH     0.0372 ****
10674 O1    -10.423597  -28.665317   -8.882534 O    1728 MOH    -0.6497 ****
10675 HO1    -9.812761  -29.405879   -8.869806 H    1728 MOH     0.4215 ****
10676 HC1    -7.502205  -27.327487  -10.646765 H    1729 MOH     0.0372 ****
10677 C1     -8.333589  -26.644080  -10.816471 C    1729 MOH     0.1166 ****
10678 HC2    -9.255618  -27.104176  -10.459382 H    1729 MOH     0.0372 ****
10679 HC3    -8.404026  -26.455877  -11.887738 H    1729 MOH     0.0372 ****
10680 O1     -8.005654  -25.423417  -10.164518 O    1729 MOH    -0.6497 ****
10681 HO1    -7.392508  -25.620601   -9.452462 H    1729 MOH     0.4215 ****
10682 HC1   -14.995634  -25.098043   -2.163605 H    1730 MOH     0.0372 ****
10683 C1    -15.887063  -24.471382   -2.195425 C    1730 MOH     0.1166 ****
10684 HC2   -16.775605  -25.102126   -2.235730 H    1730 MOH     0.0372 ****
10685 HC3   -15.877825  -23.853294   -3.093451 H    1730 MOH     0.0372 ****
10686 O1    -15.876671  -23.623859   -1.073954 O    1730 MOH    -0.6497 ****
10687 HO1   -15.120919  -23.043738   -1.190626 H    1730 MOH     0.4215 ****
10688 HC1    -7.742382  -24.501185  -14.624241 H    1731 MOH     0.0372 ****
10689 C1     -8.752168  -24.822068  -14.880214 C    1731 MOH     0.1166 ****
10690 HC2    -9.449607  -24.391366  -14.161086 H    1731 MOH     0.0372 ****
10691 HC3    -8.833574  -25.908416  -14.845565 H    1731 MOH     0.0372 ****
10692 O1     -9.107238  -24.362788  -16.152299 O    1731 MOH    -0.6497 ****
10693 HO1    -8.508526  -24.770220  -16.781624 H    1731 MOH     0.4215 ****
10694 HC1   -13.338639  -23.836148   -3.577112 H    1732 MOH     0.0372 ****
10695 C1    -13.114049  -22.770212   -3.526907 C    1732 MOH     0.1166 ****
10696 HC2   -13.473161  -22.222343   -4.398063 H    1732 MOH     0.0372 ****
10697 HC3   -12.028054  -22.723671   -3.599032 H    1732 MOH     0.0372 ****
10698 O1    -13.474893  -22.172128   -2.260479 O    1732 MOH    -0.6497 ****
10699 HO1   -13.547062  -21.223359   -2.386344 H    1732 MOH     0.4215 ****
10700 HC1   -19.096553  -25.930054   -7.127495 H    1733 MOH     0.0372 ****
10701 C1    -18.751297  -26.773086   -7.725000 C    1733 MOH     0.1166 ****
10702 HC2   -18.011134  -27.305034   -7.126081 H    1733 MOH     0.0372 ****
10703 HC3   -18.309624  -26.387292   -8.643532 H    1733 MOH     0.0372 ****
10704 O1    -19.803807  -27.690828   -8.058755 O    1733 MOH    -0.6497 ****
10705 HO1   -19.524947  -28.203997   -8.820309 H    1733 MOH     0.4215 ****
10706 HC1   -11.939142  -17.392765  -13.350035 H    1734 MOH     0.0372 ****
10707 C1    -12.431621  -16.956348  -14.219069 C    1734 MOH     0.1166 ****
10708 HC2   -13.373857  -16.468899  -13.968753 H    1734 MOH     0.0372 ****
10709 HC3   -12.683923  -17.790807  -14.873850 H    1734 MOH     0.0372 ****
10710 O1    -11.593886  -16.031257  -14.919105 O    1734 MOH    -0.6497 ****
10711 HO1   -12.134863  -15.331520  -15.291043 H    1734 MOH     0.4215 ****
10712 HC1    -5.598104  -28.792691  -15.689144 H    1735 MOH     0.0372 ****
10713 C1     -6.503966  -28.468133  -16.200382 C    1735 MOH     0.1166 ****
10714 HC2    -7.389621  -28.860868  -15.701165 H    1735 MOH     0.0372 ****
10715 HC3    -6.496461  -28.816369  -17.233465 H    1735 MOH     0.0372 ****
10716 O1     -6.596919  -27.076007  -16.186240 O    1735 MOH    -0.6497 ****
10717 HO1    -6.326720  -26.790641  -15.310134 H    1735 MOH     0.4215 ****
10718 HC1   -13.063820  -24.228883  -13.704295 H    1736 MOH     0.0372 ****
10719 C1    -12.400444  -25.050687  -13.434887 C    1736 MOH     0.1166 ****
10720 HC2   -11.384308  -24.664484  -13.357106 H    1736 MOH     0.0372 ****
10721 HC3   -12.414301  -25.833299  -14.193613 H    1736 MOH     0.0372 ****
10722 O1    -12.778609  -25.477714  -12.147953 O    1736 MOH    -0.6497 ****
10723 HO1   -12.724915  -24.708575  -11.576611 H    1736 MOH     0.4215 ****
10724 HC1    -9.283908  -18.029633   -9.600954 H    1737 MOH     0.0372 ****
10725 C1     -9.623390  -18.775502  -10.320082 C    1737 MOH     0.1166 ****
10726 HC2   -10.129726  -19.612819   -9.838542 H    1737 MOH     0.0372 ****
10727 HC3    -8.736580  -19.172320  -10.815057 H    1737 MOH     0.0372 ****
10728 O1    -10.464589  -18.154965  -11.274676 O    1737 MOH    -0.6497 ****
10729 HO1    -9.935159  -17.469924  -11.690455 H    1737 MOH     0.4215 ****
10730 HC1   -15.915353  -20.533419  -15.438121 H    1738 MOH     0.0372 ****
10731 C1    -15.258906  -20.257852  -14.612927 C    1738 MOH     0.1166 ****
10732 HC2   -15.805656  -20.293778  -13.669647 H    1738 MOH     0.0372 ****
10733 HC3   -14.912495  -19.235190  -14.763541 H    1738 MOH     0.0372 ****
10734 O1    -14.140001  -21.129870  -14.547873 O    1738 MOH    -0.6497 ****
10735 HO1   -13.534938  -20.803272  -13.877536 H    1738 MOH     0.4215 ****
10736 HC1   -19.459129  -10.424375  -15.390038 H    1739 MOH     0.0372 ****
10737 C1    -20.366723  -10.044704  -15.859557 C    1739 MOH     0.1166 ****
10738 HC2   -20.236242  -10.064709  -16.942137 H    1739 MOH     0.0372 ****
10739 HC3   -20.509906   -9.013877  -15.537823 H    1739 MOH     0.0372 ****
10740 O1    -21.506990  -10.837931  -15.485497 O    1739 MOH    -0.6497 ****
10741 HO1   -22.280062  -10.332928  -15.747834 H    1739 MOH     0.4215 ****
10742 HC1   -17.301571  -18.894302   -8.878291 H    1740 MOH     0.0372 ****
10743 C1    -16.719602  -18.651803   -9.767832 C    1740 MOH     0.1166 ****
10744 HC2   -16.755975  -19.473607  -10.482717 H    1740 MOH     0.0372 ****
10745 HC3   -15.692496  -18.508508   -9.430542 H    1740 MOH     0.0372 ****
10746 O1    -17.185523  -17.407462  -10.299576 O    1740 MOH    -0.6497 ****
10747 HO1   -16.769831  -16.730178   -9.761468 H    1740 MOH     0.4215 ****
10748 HC1   -19.807271  -23.460560  -11.206794 H    1741 MOH     0.0372 ****
10749 C1    -19.644458  -23.684688  -10.152498 C    1741 MOH     0.1166 ****
10750 HC2   -19.076923  -24.611412  -10.060574 H    1741 MOH     0.0372 ****
10751 HC3   -20.628263  -23.802263   -9.698535 H    1741 MOH     0.0372 ****
10752 O1    -18.951638  -22.608137   -9.560649 O    1741 MOH    -0.6497 ****
10753 HO1   -18.113325  -22.517506  -10.018855 H    1741 MOH     0.4215 ****
10754 HC1    -5.998207  -29.898635  -11.252049 H    1742 MOH     0.0372 ****
10755 C1     -5.614269  -29.301776  -12.079364 C    1742 MOH     0.1166 ****
10756 HC2    -4.926645  -29.919048  -12.657777 H    1742 MOH     0.0372 ****
10757 HC3    -5.113129  -28.439964  -11.637422 H    1742 MOH     0.0372 ****
10758 O1     -6.679481  -28.862093  -12.866373 O    1742 MOH    -0.6497 ****
10759 HO1    -7.208911  -29.618169  -13.128003 H    1742 MOH     0.4215 ****
10760 HC1   -15.531992  -20.902476   -6.651612 H    1743 MOH     0.0372 ****
10761 C1    -15.468484  -21.825525   -7.227904 C    1743 MOH     0.1166 ****
10762 HC2   -14.436759  -22.029649   -7.513575 H    1743 MOH     0.0372 ****
10763 HC3   -16.085671  -21.713665   -8.118859 H    1743 MOH     0.0372 ****
10764 O1    -15.986367  -22.878806   -6.462815 O    1743 MOH    -0.6497 ****
10765 HO1   -15.736374  -23.703467   -6.887079 H    1743 MOH     0.4215 ****
10766 HC1   -20.919825  -15.278856  -17.982998 H    1744 MOH     0.0372 ****
10767 C1    -20.048603  -15.934094  -18.002090 C    1744 MOH     0.1166 ****
10768 HC2   -20.049181  -16.505642  -18.929814 H    1744 MOH     0.0372 ****
10769 HC3   -20.076316  -16.643221  -17.174068 H    1744 MOH     0.0372 ****
10770 O1    -18.870231  -15.149441  -17.928551 O    1744 MOH    -0.6497 ****
10771 HO1   -18.899676  -14.638722  -17.116085 H    1744 MOH     0.4215 ****
10772 HC1    -6.106172  -24.441989  -12.516356 H    1745 MOH     0.0372 ****
10773 C1     -5.465890  -25.317273  -12.407461 C    1745 MOH     0.1166 ****
10774 HC2    -5.616001  -25.718173  -11.404784 H    1745 MOH     0.0372 ****
10775 HC3    -4.427237  -25.004555  -12.513527 H    1745 MOH     0.0372 ****
10776 O1     -5.845209  -26.259102  -13.410846 O    1745 MOH    -0.6497 ****
10777 HO1    -5.916224  -27.132345  -13.018401 H    1745 MOH     0.4215 ****
10778 HC1    -7.970436  -22.228466   -8.095524 H    1746 MOH     0.0372 ****
10779 C1     -7.111916  -21.866758   -8.661209 C    1746 MOH     0.1166 ****
10780 HC2    -7.460058  -21.347466   -9.553578 H    1746 MOH     0.0372 ****
10781 HC3    -6.482604  -22.707342   -8.954659 H    1746 MOH     0.0372 ****
10782 O1     -6.362515  -20.977185   -7.865714 O    1746 MOH    -0.6497 ****
10783 HO1    -6.195084  -21.395640   -7.017893 H    1746 MOH     0.4215 ****
10784 HC1    -7.171383  -20.907375  -18.027546 H    1747 MOH     0.0372 ****
10785 C1     -7.618252  -20.493411  -18.931228 C    1747 MOH     0.1166 ****
10786 HC2    -8.645936  -20.174569  -18.759401 H    1747 MOH     0.0372 ****
10787 HC3    -7.587653  -21.265817  -19.700561 H    1747 MOH     0.0372 ****
10788 O1     -6.807652  -19.429108  -19.319430 O    1747 MOH    -0.6497 ****
10789 HO1    -6.625787  -18.882872  -18.551512 H    1747 MOH     0.4215 ****
10790 HC1   -22.223482  -15.966346  -13.381147 H    1748 MOH     0.0372 ****
10791 C1    -22.594141  -16.363163  -12.436453 C    1748 MOH     0.1166 ****
10792 HC2   -21.739662  -16.486046  -11.771065 H    1748 MOH     0.0372 ****
10793 HC3   -23.065836  -17.338877  -12.552418 H    1748 MOH     0.0372 ****
10794 O1    -23.449197  -15.427866  -11.874303 O    1748 MOH    -0.6497 ****
10795 HO1   -23.264444  -15.426233  -10.932437 H    1748 MOH     0.4215 ****
10796 HC1   -22.935355  -20.641197   -7.642976 H    1749 MOH     0.0372 ****
10797 C1    -23.001750  -20.901659   -6.586558 C    1749 MOH     0.1166 ****
10798 HC2   -22.893786  -21.979843   -6.462815 H    1749 MOH     0.0372 ****
10799 HC3   -23.985555  -20.586900   -6.237955 H    1749 MOH     0.0372 ****
10800 O1    -22.017945  -20.182734   -5.863188 O    1749 MOH    -0.6497 ****
10801 HO1   -21.195221  -20.291736   -6.346142 H    1749 MOH     0.4215 ****
10802 HC1   -15.388810  -18.080255   -2.794345 H    1750 MOH     0.0372 ****
10803 C1    -14.951178  -18.983709   -3.219316 C    1750 MOH     0.1166 ****
10804 HC2   -14.707536  -18.788566   -4.263005 H    1750 MOH     0.0372 ****
10805 HC3   -15.656700  -19.810003   -3.125978 H    1750 MOH     0.0372 ****
10806 O1    -13.814953  -19.281322   -2.471904 O    1750 MOH    -0.6497 ****
10807 HO1   -13.187373  -18.555456   -2.519987 H    1750 MOH     0.4215 ****
10808 HC1   -18.608692  -25.278081   -3.427205 H    1751 MOH     0.0372 ****
10809 C1    -19.019188  -26.234607   -3.104057 C    1751 MOH     0.1166 ****
10810 HC2   -18.240342  -26.997215   -3.082844 H    1751 MOH     0.0372 ****
10811 HC3   -19.804384  -26.513440   -3.806214 H    1751 MOH     0.0372 ****
10812 O1    -19.615013  -26.090087   -1.848236 O    1751 MOH    -0.6497 ****
10813 HO1   -18.994362  -25.641014   -1.269822 H    1751 MOH     0.4215 ****
10814 HC1   -22.225791  -14.552582  -16.456355 H    1752 MOH     0.0372 ****
10815 C1    -21.659411  -14.247620  -15.576007 C    1752 MOH     0.1166 ****
10816 HC2   -21.273741  -15.141276  -15.084568 H    1752 MOH     0.0372 ****
10817 HC3   -22.313549  -13.723838  -14.879507 H    1752 MOH     0.0372 ****
10818 O1    -20.564755  -13.433165  -15.981179 O    1752 MOH    -0.6497 ****
10819 HO1   -20.915784  -12.557881  -16.157956 H    1752 MOH     0.4215 ****
10820 HC1   -13.407921  -20.294186   -6.596458 H    1753 MOH     0.0372 ****
10821 C1    -12.482428  -19.994532   -6.102897 C    1753 MOH     0.1166 ****
10822 HC2   -12.038446  -20.848587   -5.590952 H    1753 MOH     0.0372 ****
10823 HC3   -12.728379  -19.242538   -5.353364 H    1753 MOH     0.0372 ****
10824 O1    -11.600237  -19.495244   -7.128909 O    1753 MOH    -0.6497 ****
10825 HO1   -11.790763  -18.557089   -7.203862 H    1753 MOH     0.4215 ****
10826 HC1   -15.072999  -24.490978  -16.177755 H    1754 MOH     0.0372 ****
10827 C1    -14.291267  -23.817777  -16.529187 C    1754 MOH     0.1166 ****
10828 HC2   -13.731814  -24.252561  -17.357209 H    1754 MOH     0.0372 ****
10829 HC3   -13.605952  -23.612836  -15.707529 H    1754 MOH     0.0372 ****
10830 O1    -14.865153  -22.618343  -16.974664 O    1754 MOH    -0.6497 ****
10831 HO1   -14.670008  -21.974944  -16.288770 H    1754 MOH     0.4215 ****
10832 HC1   -10.173143   -1.750079  -15.906226 H    1755 MOH     0.0372 ****
10833 C1    -11.209486   -1.611274  -15.599341 C    1755 MOH     0.1166 ****
10834 HC2   -11.772980   -1.247117  -16.457769 H    1755 MOH     0.0372 ****
10835 HC3   -11.279346   -0.861322  -14.810917 H    1755 MOH     0.0372 ****
10836 O1    -11.734875   -2.853982  -15.182148 O    1755 MOH    -0.6497 ****
10837 HO1   -12.497555   -2.701706  -14.619998 H    1755 MOH     0.4215 ****
10838 HC1   -15.674713  -12.291050  -11.814906 H    1756 MOH     0.0372 ****
10839 C1    -16.475498  -12.685009  -11.189116 C    1756 MOH     0.1166 ****
10840 HC2   -17.041301  -13.415366  -11.768237 H    1756 MOH     0.0372 ****
10841 HC3   -17.148111  -11.908113  -10.827785 H    1756 MOH     0.0372 ****
10842 O1    -15.978400  -13.425980  -10.144720 O    1756 MOH    -0.6497 ****
10843 HO1   -15.433958  -12.829937   -9.625703 H    1756 MOH     0.4215 ****
10844 HC1    -3.565369  -11.052016   -7.308514 H    1757 MOH     0.0372 ****
10845 C1     -3.504170  -10.272262   -6.550496 C    1757 MOH     0.1166 ****
10846 HC2    -3.143903  -10.718069   -5.622772 H    1757 MOH     0.0372 ****
10847 HC3    -4.497212   -9.846867   -6.404832 H    1757 MOH     0.0372 ****
10848 O1     -2.632948   -9.249600   -6.978295 O    1757 MOH    -0.6497 ****
10849 HO1    -1.746138   -9.609675   -7.044763 H    1757 MOH     0.4215 ****
10850 HC1     2.693108   -6.302864  -13.089112 H    1758 MOH     0.0372 ****
10851 C1      3.126698   -6.109762  -12.108355 C    1758 MOH     0.1166 ****
10852 HC2     3.412487   -5.058931  -12.057443 H    1758 MOH     0.0372 ****
10853 HC3     4.014663   -6.729075  -11.981783 H    1758 MOH     0.0372 ****
10854 O1      2.172338   -6.424522  -11.100728 O    1758 MOH    -0.6497 ****
10855 HO1     2.373256   -7.316136  -10.807986 H    1758 MOH     0.4215 ****
10856 HC1    -3.944110  -17.156553  -20.721623 H    1759 MOH     0.0372 ****
10857 C1     -4.131172  -18.142473  -20.296652 C    1759 MOH     0.1166 ****
10858 HC2    -4.523193  -18.047759  -19.284075 H    1759 MOH     0.0372 ****
10859 HC3    -3.173925  -18.658907  -20.228062 H    1759 MOH     0.0372 ****
10860 O1     -4.972371  -18.946313  -21.145887 O    1759 MOH    -0.6497 ****
10861 HO1    -5.688286  -19.292508  -20.608486 H    1759 MOH     0.4215 ****
10862 HC1    -1.313703  -16.684618  -14.084718 H    1760 MOH     0.0372 ****
10863 C1     -2.162408  -16.249833  -13.556510 C    1760 MOH     0.1166 ****
10864 HC2    -2.298662  -15.222681  -13.894507 H    1760 MOH     0.0372 ****
10865 HC3    -1.997863  -16.262081  -12.478879 H    1760 MOH     0.0372 ****
10866 O1     -3.328078  -16.947938  -13.890264 O    1760 MOH    -0.6497 ****
10867 HO1    -3.300942  -17.748513  -13.360641 H    1760 MOH     0.4215 ****
10868 HC1     6.762850   -7.914220  -17.704398 H    1761 MOH     0.0372 ****
10869 C1      6.568283   -7.172841  -16.929409 C    1761 MOH     0.1166 ****
10870 HC2     5.504227   -7.130791  -16.696771 H    1761 MOH     0.0372 ****
10871 HC3     6.869660   -6.184472  -17.276598 H    1761 MOH     0.0372 ****
10872 O1      7.238010   -7.503114  -15.718135 O    1761 MOH    -0.6497 ****
10873 HO1     7.020348   -8.397586  -15.445899 H    1761 MOH     0.4215 ****
10874 HC1    -9.123520   -3.201402  -11.237200 H    1762 MOH     0.0372 ****
10875 C1     -8.519611   -2.649858  -10.516658 C    1762 MOH     0.1166 ****
10876 HC2    -7.707857   -3.285092  -10.163104 H    1762 MOH     0.0372 ****
10877 HC3    -9.167976   -2.364084   -9.687929 H    1762 MOH     0.0372 ****
10878 O1     -8.015007   -1.525951  -11.172146 O    1762 MOH    -0.6497 ****
10879 HO1    -7.202098   -1.264263  -10.733032 H    1762 MOH     0.4215 ****
10880 HC1    -2.419328   -9.608859  -23.698542 H    1763 MOH     0.0372 ****
10881 C1     -3.211453  -10.141214  -23.172455 C    1763 MOH     0.1166 ****
10882 HC2    -3.184317   -9.883610  -22.113916 H    1763 MOH     0.0372 ****
10883 HC3    -3.045753  -11.208784  -23.314583 H    1763 MOH     0.0372 ****
10884 O1     -4.440054   -9.725618  -23.728241 O    1763 MOH    -0.6497 ****
10885 HO1    -5.134607  -10.084468  -23.170334 H    1763 MOH     0.4215 ****
10886 HC1    -1.723044   -1.717827  -24.817892 H    1764 MOH     0.0372 ****
10887 C1     -1.185531   -1.375307  -25.702483 C    1764 MOH     0.1166 ****
10888 HC2    -1.513466   -1.949304  -26.569396 H    1764 MOH     0.0372 ****
10889 HC3    -0.126093   -1.559835  -25.524292 H    1764 MOH     0.0372 ****
10890 O1     -1.445916    0.005389  -25.971184 O    1764 MOH    -0.6497 ****
10891 HO1    -1.186685    0.210329  -26.872038 H    1764 MOH     0.4215 ****
10892 HC1     1.645795   -3.550046  -16.175633 H    1765 MOH     0.0372 ****
10893 C1      1.694292   -4.637619  -16.226545 C    1765 MOH     0.1166 ****
10894 HC2     1.316128   -4.992387  -17.184675 H    1765 MOH     0.0372 ****
10895 HC3     1.087497   -5.084243  -15.438828 H    1765 MOH     0.0372 ****
10896 O1      3.030858   -5.071995  -16.153006 O    1765 MOH    -0.6497 ****
10897 HO1     2.998527   -6.031379  -16.131793 H    1765 MOH     0.4215 ****
10898 HC1    -7.264452   -4.574749  -21.749049 H    1766 MOH     0.0372 ****
10899 C1     -7.218841   -5.029537  -22.738998 C    1766 MOH     0.1166 ****
10900 HC2    -6.301432   -5.608434  -22.847893 H    1766 MOH     0.0372 ****
10901 HC3    -7.229233   -4.251824  -23.501967 H    1766 MOH     0.0372 ****
10902 O1     -8.322158   -5.866038  -22.956080 O    1766 MOH    -0.6497 ****
10903 HO1    -8.062927   -6.753570  -22.698693 H    1766 MOH     0.4215 ****
10904 HC1     0.842701   -9.131616  -23.253772 H    1767 MOH     0.0372 ****
10905 C1      1.041309   -8.171008  -22.779303 C    1767 MOH     0.1166 ****
10906 HC2     2.105943   -7.953820  -22.862742 H    1767 MOH     0.0372 ****
10907 HC3     0.812101   -8.206117  -21.714401 H    1767 MOH     0.0372 ****
10908 O1      0.248030   -7.175290  -23.430549 O    1767 MOH    -0.6497 ****
10909 HO1     0.295373   -6.399210  -22.866985 H    1767 MOH     0.4215 ****
10910 HC1   -16.462796   -5.736215  -10.648180 H    1768 MOH     0.0372 ****
10911 C1    -15.422411   -5.708863  -10.974156 C    1768 MOH     0.1166 ****
10912 HC2   -14.838133   -6.348588  -10.311597 H    1768 MOH     0.0372 ****
10913 HC3   -15.081197   -4.675178  -10.920416 H    1768 MOH     0.0372 ****
10914 O1    -15.355439   -6.191004  -12.297153 O    1768 MOH    -0.6497 ****
10915 HO1   -15.950109   -6.943814  -12.340993 H    1768 MOH     0.4215 ****
10916 HC1   -13.582396  -10.418415  -14.808089 H    1769 MOH     0.0372 ****
10917 C1    -12.667873  -10.112229  -15.315792 C    1769 MOH     0.1166 ****
10918 HC2   -12.072625   -9.457807  -14.678688 H    1769 MOH     0.0372 ****
10919 HC3   -12.943269   -9.565992  -16.218060 H    1769 MOH     0.0372 ****
10920 O1    -11.965815  -11.251650  -15.713893 O    1769 MOH    -0.6497 ****
10921 HO1   -11.031085  -11.052833  -15.624090 H    1769 MOH     0.4215 ****
10922 HC1    -0.316041  -14.598877  -18.241799 H    1770 MOH     0.0372 ****
10923 C1     -0.268699  -13.875461  -17.427212 C    1770 MOH     0.1166 ****
10924 HC2    -1.061978  -13.147963  -17.598332 H    1770 MOH     0.0372 ****
10925 HC3     0.692012  -13.361885  -17.473881 H    1770 MOH     0.0372 ****
10926 O1     -0.454028  -14.517228  -16.133207 O    1770 MOH    -0.6497 ****
10927 HO1    -0.645708  -13.841577  -15.477719 H    1770 MOH     0.4215 ****
10928 HC1   -16.636579  -10.756036  -19.663791 H    1771 MOH     0.0372 ****
10929 C1    -16.593855  -10.514353  -18.601717 C    1771 MOH     0.1166 ****
10930 HC2   -15.556934  -10.576407  -18.270791 H    1771 MOH     0.0372 ****
10931 HC3   -17.191412  -11.216132  -18.019768 H    1771 MOH     0.0372 ****
10932 O1    -17.027445   -9.220614  -18.332309 O    1771 MOH    -0.6497 ****
10933 HO1   -17.797053   -9.029146  -18.873246 H    1771 MOH     0.4215 ****
10934 HC1   -19.239851   -6.818481  -11.948549 H    1772 MOH     0.0372 ****
10935 C1    -19.674596   -7.703972  -11.485394 C    1772 MOH     0.1166 ****
10936 HC2   -20.086824   -8.378806  -12.235634 H    1772 MOH     0.0372 ****
10937 HC3   -20.496743   -7.417790  -10.828492 H    1772 MOH     0.0372 ****
10938 O1    -18.769311   -8.406567  -10.689899 O    1772 MOH    -0.6497 ****
10939 HO1   -19.295854   -9.124268  -10.329275 H    1772 MOH     0.4215 ****
10940 HC1     6.441843   -5.884409  -13.922791 H    1773 MOH     0.0372 ****
10941 C1      6.524405   -4.944622  -13.376905 C    1773 MOH     0.1166 ****
10942 HC2     5.697639   -4.288975  -13.649848 H    1773 MOH     0.0372 ****
10943 HC3     7.481651   -4.482485  -13.621564 H    1773 MOH     0.0372 ****
10944 O1      6.483413   -5.302655  -12.035523 O    1773 MOH    -0.6497 ****
10945 HO1     6.707425   -4.559644  -11.471252 H    1773 MOH     0.4215 ****
10946 HC1    -5.576280  -11.914236   -5.229620 H    1774 MOH     0.0372 ****
10947 C1     -5.276635  -12.961393   -5.244470 C    1774 MOH     0.1166 ****
10948 HC2    -4.642704  -13.150004   -6.111382 H    1774 MOH     0.0372 ****
10949 HC3    -6.144392  -13.615407   -5.323666 H    1774 MOH     0.0372 ****
10950 O1     -4.571690  -13.272479   -4.050873 O    1774 MOH    -0.6497 ****
10951 HO1    -4.137523  -14.120818   -4.169667 H    1774 MOH     0.4215 ****
10952 HC1   -13.327207   -8.646617  -19.277004 H    1775 MOH     0.0372 ****
10953 C1    -13.867607   -7.777048  -19.650356 C    1775 MOH     0.1166 ****
10954 HC2   -14.311012   -8.106505  -20.590101 H    1775 MOH     0.0372 ****
10955 HC3   -13.144764   -6.974024  -19.796727 H    1775 MOH     0.0372 ****
10956 O1    -14.858917   -7.438611  -18.656871 O    1775 MOH    -0.6497 ****
10957 HO1   -15.494580   -8.152637  -18.574140 H    1775 MOH     0.4215 ****
10958 HC1     1.229525  -17.261881  -17.637223 H    1776 MOH     0.0372 ****
10959 C1      0.549407  -17.830571  -17.002948 C    1776 MOH     0.1166 ****
10960 HC2     0.903900  -17.793420  -15.972694 H    1776 MOH     0.0372 ****
10961 HC3     0.494558  -18.867113  -17.334581 H    1776 MOH     0.0372 ****
10962 O1     -0.683236  -17.207584  -17.084973 O    1776 MOH    -0.6497 ****
10963 HO1    -0.581045  -16.314745  -16.749097 H    1776 MOH     0.4215 ****
10964 HC1    -4.902512  -10.798494  -12.653534 H    1777 MOH     0.0372 ****
10965 C1     -5.042808  -10.952812  -13.722680 C    1777 MOH     0.1166 ****
10966 HC2    -5.239107   -9.998327  -14.211998 H    1777 MOH     0.0372 ****
10967 HC3    -5.877079  -11.631729  -13.898749 H    1777 MOH     0.0372 ****
10968 O1     -3.867323  -11.507213  -14.274223 O    1777 MOH    -0.6497 ****
10969 HO1    -3.220691  -11.608050  -13.572066 H    1777 MOH     0.4215 ****
10970 HC1    -2.139314   -2.762126  -11.363065 H    1778 MOH     0.0372 ****
10971 C1     -1.656649   -3.728042  -11.510143 C    1778 MOH     0.1166 ****
10972 HC2    -2.429721   -4.482076  -11.657928 H    1778 MOH     0.0372 ****
10973 HC3    -1.092000   -3.970541  -10.610703 H    1778 MOH     0.0372 ****
10974 O1     -0.748477   -3.700281  -12.633028 O    1778 MOH    -0.6497 ****
10975 HO1    -0.037181   -3.096073  -12.403926 H    1778 MOH     0.4215 ****
10976 HC1    -7.446317  -11.004659  -20.022294 H    1779 MOH     0.0372 ****
10977 C1     -7.607398  -12.017523  -19.653892 C    1779 MOH     0.1166 ****
10978 HC2    -8.358531  -11.972616  -18.866175 H    1779 MOH     0.0372 ****
10979 HC3    -6.682483  -12.418015  -19.238820 H    1779 MOH     0.0372 ****
10980 O1     -8.058886  -12.864230  -20.710309 O    1779 MOH    -0.6497 ****
10981 HO1    -7.654163  -13.722368  -20.560402 H    1779 MOH     0.4215 ****
10982 HC1     1.559192  -16.887517  -12.408168 H    1780 MOH     0.0372 ****
10983 C1      1.392915  -16.800560  -11.334073 C    1780 MOH     0.1166 ****
10984 HC2     1.465084  -15.744422  -11.074565 H    1780 MOH     0.0372 ****
10985 HC3     2.179844  -17.354553  -10.821421 H    1780 MOH     0.0372 ****
10986 O1      0.067319  -17.319444  -11.100021 O    1780 MOH    -0.6497 ****
10987 HO1    -0.243873  -16.970800  -10.261392 H    1780 MOH     0.4215 ****
10988 HC1    -3.645043    2.039282  -20.235133 H    1781 MOH     0.0372 ****
10989 C1     -4.225857    2.420586  -19.395091 C    1781 MOH     0.1166 ****
10990 HC2    -3.928522    3.427734  -19.103055 H    1781 MOH     0.0372 ****
10991 HC3    -4.018011    1.765347  -18.548684 H    1781 MOH     0.0372 ****
10992 O1     -5.605147    2.376903  -19.680055 O    1781 MOH    -0.6497 ****
10993 HO1    -6.010447    1.702069  -19.130633 H    1781 MOH     0.4215 ****
10994 HC1     1.152738  -10.749504  -13.589744 H    1782 MOH     0.0372 ****
10995 C1      1.135995  -11.756653  -14.007644 C    1782 MOH     0.1166 ****
10996 HC2     1.637712  -12.415157  -13.299830 H    1782 MOH     0.0372 ****
10997 HC3     1.687364  -11.785230  -14.948096 H    1782 MOH     0.0372 ****
10998 O1     -0.206922  -12.192254  -14.156843 O    1782 MOH    -0.6497 ****
10999 HO1    -0.698825  -11.931383  -13.374076 H    1782 MOH     0.4215 ****
11000 HC1    -4.712564   -6.958511  -14.458071 H    1783 MOH     0.0372 ****
11001 C1     -5.776043   -6.757652  -14.589593 C    1783 MOH     0.1166 ****
11002 HC2    -6.358012   -7.678661  -14.562723 H    1783 MOH     0.0372 ****
11003 HC3    -5.941165   -6.286942  -15.559036 H    1783 MOH     0.0372 ****
11004 O1     -6.226376   -5.867263  -13.610250 O    1783 MOH    -0.6497 ****
11005 HO1    -6.116102   -4.972791  -13.940469 H    1783 MOH     0.4215 ****
11006 HC1    -0.999624   -4.030962  -17.254678 H    1784 MOH     0.0372 ****
11007 C1     -1.403769   -3.685176  -18.205737 C    1784 MOH     0.1166 ****
11008 HC2    -2.336767   -4.208550  -18.417869 H    1784 MOH     0.0372 ****
11009 HC3    -0.682659   -3.830104  -19.009717 H    1784 MOH     0.0372 ****
11010 O1     -1.650298   -2.319177  -18.051588 O    1784 MOH    -0.6497 ****
11011 HO1    -0.825842   -1.863572  -17.863497 H    1784 MOH     0.4215 ****
11012 HC1    -5.232179  -15.286776  -12.051079 H    1785 MOH     0.0372 ****
11013 C1     -5.418086  -14.700939  -12.951226 C    1785 MOH     0.1166 ****
11014 HC2    -5.400188  -15.324743  -13.845009 H    1785 MOH     0.0372 ****
11015 HC3    -4.670417  -13.915470  -13.060121 H    1785 MOH     0.0372 ****
11016 O1     -6.660544  -14.112654  -12.821826 O    1785 MOH    -0.6497 ****
11017 HO1    -6.959034  -14.002018  -13.727630 H    1785 MOH     0.4215 ****
11018 HC1    -4.047456  -11.711745  -10.631916 H    1786 MOH     0.0372 ****
11019 C1     -3.293437  -12.465372  -10.859604 C    1786 MOH     0.1166 ****
11020 HC2    -3.779566  -13.354945  -11.259120 H    1786 MOH     0.0372 ****
11021 HC3    -2.804421  -12.754820   -9.929759 H    1786 MOH     0.0372 ****
11022 O1     -2.359284  -11.923218  -11.804299 O    1786 MOH    -0.6497 ****
11023 HO1    -2.142778  -11.025480  -11.544791 H    1786 MOH     0.4215 ****
11024 HC1    -5.802024   -3.358985  -19.718238 H    1787 MOH     0.0372 ****
11025 C1     -6.039315   -3.645576  -18.692933 C    1787 MOH     0.1166 ****
11026 HC2    -5.277212   -4.308163  -18.283519 H    1787 MOH     0.0372 ****
11027 HC3    -6.992520   -4.174257  -18.712025 H    1787 MOH     0.0372 ****
11028 O1     -6.140928   -2.519219  -17.855012 O    1787 MOH    -0.6497 ****
11029 HO1    -5.367279   -1.962776  -17.974513 H    1787 MOH     0.4215 ****
11030 HC1    -8.110847  -18.341289  -13.366298 H    1788 MOH     0.0372 ****
11031 C1     -8.517879  -17.340673  -13.511255 C    1788 MOH     0.1166 ****
11032 HC2    -9.563461  -17.386397  -13.816725 H    1788 MOH     0.0372 ****
11033 HC3    -7.961314  -16.883026  -14.327963 H    1788 MOH     0.0372 ****
11034 O1     -8.363149  -16.516828  -12.354428 O    1788 MOH    -0.6497 ****
11035 HO1    -8.080248  -15.636644  -12.614644 H    1788 MOH     0.4215 ****
11036 HC1     1.239918   -2.143630  -18.921329 H    1789 MOH     0.0372 ****
11037 C1      1.660229   -1.260181  -18.440496 C    1789 MOH     0.1166 ****
11038 HC2     1.913685   -0.518394  -19.197808 H    1789 MOH     0.0372 ****
11039 HC3     2.547039   -1.543097  -17.874104 H    1789 MOH     0.0372 ****
11040 O1      0.655062   -0.763751  -17.617424 O    1789 MOH    -0.6497 ****
11041 HO1     1.011287   -0.567384  -16.748390 H    1789 MOH     0.4215 ****
11042 HC1    -6.741373  -18.773216  -10.329981 H    1790 MOH     0.0372 ****
11043 C1     -5.665192  -18.765051  -10.499687 C    1790 MOH     0.1166 ****
11044 HC2    -5.244881  -17.904872   -9.979964 H    1790 MOH     0.0372 ****
11045 HC3    -5.461387  -18.704630  -11.568833 H    1790 MOH     0.0372 ****
11046 O1     -5.071676  -19.909779   -9.999055 O    1790 MOH    -0.6497 ****
11047 HO1    -5.533556  -20.171058   -9.200025 H    1790 MOH     0.4215 ****
11048 HC1   -10.095200   -4.105263  -17.731268 H    1791 MOH     0.0372 ****
11049 C1    -10.677747   -4.978098  -17.435698 C    1791 MOH     0.1166 ****
11050 HC2   -10.341729   -5.892983  -17.922894 H    1791 MOH     0.0372 ****
11051 HC3   -11.697925   -4.798061  -17.772988 H    1791 MOH     0.0372 ****
11052 O1    -10.684675   -5.125067  -16.032798 O    1791 MOH    -0.6497 ****
11053 HO1   -10.871159   -4.263255  -15.651667 H    1791 MOH     0.4215 ****
11054 HC1   -10.926007   -7.119769  -13.460343 H    1792 MOH     0.0372 ****
11055 C1     -9.894282   -7.403501  -13.666111 C    1792 MOH     0.1166 ****
11056 HC2    -9.623505   -8.229387  -13.009209 H    1792 MOH     0.0372 ****
11057 HC3    -9.245918   -6.552712  -13.455394 H    1792 MOH     0.0372 ****
11058 O1     -9.756296   -7.722751  -15.027999 O    1792 MOH    -0.6497 ****
11059 HO1   -10.053054   -6.929933  -15.480547 H    1792 MOH     0.4215 ****
11060 HC1    -5.431942   -7.847267  -19.146896 H    1793 MOH     0.0372 ****
11061 C1     -5.417508   -7.139773  -19.976332 C    1793 MOH     0.1166 ****
11062 HC2    -6.408241   -6.708663  -20.117754 H    1793 MOH     0.0372 ****
11063 HC3    -5.078604   -7.632937  -20.887086 H    1793 MOH     0.0372 ****
11064 O1     -4.540513   -6.088125  -19.669448 O    1793 MOH    -0.6497 ****
11065 HO1    -4.344214   -6.081185  -18.729703 H    1793 MOH     0.4215 ****
11066 HC1     0.699518  -11.681943   -5.817226 H    1794 MOH     0.0372 ****
11067 C1      0.774573  -10.640094   -6.126939 C    1794 MOH     0.1166 ****
11068 HC2     1.813226  -10.415557   -6.370183 H    1794 MOH     0.0372 ****
11069 HC3     0.412575  -10.038744   -5.291846 H    1794 MOH     0.0372 ****
11070 O1     -0.113392  -10.482510   -7.203155 O    1794 MOH    -0.6497 ****
11071 HO1     0.253803  -11.003026   -7.920869 H    1794 MOH     0.4215 ****
11072 HC1    -9.575585  -15.594595   -5.268511 H    1795 MOH     0.0372 ****
11073 C1     -8.583120  -15.573774   -5.718938 C    1795 MOH     0.1166 ****
11074 HC2    -8.060041  -14.662564   -5.429024 H    1795 MOH     0.0372 ****
11075 HC3    -8.643164  -15.629296   -6.805054 H    1795 MOH     0.0372 ****
11076 O1     -7.848153  -16.638486   -5.270632 O    1795 MOH    -0.6497 ****
11077 HO1    -8.295022  -17.434570   -5.566203 H    1795 MOH     0.4215 ****
11078 HC1   -11.635571   -3.365109  -12.263212 H    1796 MOH     0.0372 ****
11079 C1    -11.875171   -3.997894  -11.409027 C    1796 MOH     0.1166 ****
11080 HC2   -12.920753   -3.873378  -11.128305 H    1796 MOH     0.0372 ****
11081 HC3   -11.242973   -3.690483  -10.575348 H    1796 MOH     0.0372 ****
11082 O1    -11.573217   -5.347971  -11.725103 O    1796 MOH    -0.6497 ****
11083 HO1   -12.035675   -5.621089  -12.520598 H    1796 MOH     0.4215 ****
11084 HC1   -14.229028  -11.303497  -21.362969 H    1797 MOH     0.0372 ****
11085 C1    -13.440945  -11.269204  -22.115330 C    1797 MOH     0.1166 ****
11086 HC2   -13.861256  -10.877694  -23.042347 H    1797 MOH     0.0372 ****
11087 HC3   -13.043151  -12.266963  -22.302006 H    1797 MOH     0.0372 ****
11088 O1    -12.434623  -10.369017  -21.765312 O    1797 MOH    -0.6497 ****
11089 HO1   -11.607281  -10.834012  -21.908855 H    1797 MOH     0.4215 ****
11090 HC1   -11.025311  -11.924035  -24.081087 H    1798 MOH     0.0372 ****
11091 C1    -10.595186  -12.493949  -23.256601 C    1798 MOH     0.1166 ****
11092 HC2    -9.819804  -13.137757  -23.671672 H    1798 MOH     0.0372 ****
11093 HC3   -11.340545  -13.142656  -22.796274 H    1798 MOH     0.0372 ****
11094 O1    -10.025918  -11.599477  -22.316856 O    1798 MOH    -0.6497 ****
11095 HO1    -9.611381  -12.138773  -21.640155 H    1798 MOH     0.4215 ****
11096 HC1    -0.678040   -3.208750  -21.795718 H    1799 MOH     0.0372 ****
11097 C1      0.065587   -3.729675  -22.398173 C    1799 MOH     0.1166 ****
11098 HC2     0.981265   -3.140164  -22.446256 H    1799 MOH     0.0372 ****
11099 HC3    -0.270431   -3.850925  -23.428428 H    1799 MOH     0.0372 ****
11100 O1      0.403914   -4.958502  -21.814103 O    1799 MOH    -0.6497 ****
11101 HO1    -0.299876   -5.229987  -21.220840 H    1799 MOH     0.4215 ****
11102 HC1     0.037874   -8.885851  -17.135884 H    1800 MOH     0.0372 ****
11103 C1     -0.001385   -9.955461  -17.340945 C    1800 MOH     0.1166 ****
11104 HC2    -0.779654  -10.383714  -16.709499 H    1800 MOH     0.0372 ****
11105 HC3     0.967408  -10.391879  -17.096993 H    1800 MOH     0.0372 ****
11106 O1     -0.290061  -10.247359  -18.709197 O    1800 MOH    -0.6497 ****
11107 HO1     0.139488  -11.061814  -18.981433 H    1800 MOH     0.4215 ****
11108 HC1     4.199415  -10.205717  -19.382362 H    1801 MOH     0.0372 ****
11109 C1      3.676913   -9.276544  -19.154674 C    1801 MOH     0.1166 ****
11110 HC2     2.644611   -9.489650  -18.876074 H    1801 MOH     0.0372 ****
11111 HC3     3.717328   -8.630287  -20.030779 H    1801 MOH     0.0372 ****
11112 O1      4.364537   -8.713162  -18.088357 O    1801 MOH    -0.6497 ****
11113 HO1     4.826995   -9.428413  -17.645708 H    1801 MOH     0.4215 ****
11114 HC1    -2.400276  -14.991612   -9.742376 H    1802 MOH     0.0372 ****
11115 C1     -2.149129  -15.512129   -8.818187 C    1802 MOH     0.1166 ****
11116 HC2    -2.815968  -16.365776   -8.697272 H    1802 MOH     0.0372 ****
11117 HC3    -2.272104  -14.842193   -7.967538 H    1802 MOH     0.0372 ****
11118 O1     -0.809099  -15.942831   -8.915061 O    1802 MOH    -0.6497 ****
11119 HO1    -0.619150  -16.498457   -8.156335 H    1802 MOH     0.4215 ****
11120 HC1    -0.927455   -8.061189  -19.763493 H    1803 MOH     0.0372 ****
11121 C1     -1.864495   -7.805218  -20.256347 C    1803 MOH     0.1166 ****
11122 HC2    -2.702807   -8.137123  -19.643285 H    1803 MOH     0.0372 ****
11123 HC3    -1.882970   -8.304097  -21.225083 H    1803 MOH     0.0372 ****
11124 O1     -1.895094   -6.421664  -20.473428 O    1803 MOH    -0.6497 ****
11125 HO1    -2.811349   -6.180389  -20.625456 H    1803 MOH     0.4215 ****
11126 HC1    -4.257034  -12.771150  -21.471156 H    1804 MOH     0.0372 ****
11127 C1     -3.951616  -13.751354  -21.838144 C    1804 MOH     0.1166 ****
11128 HC2    -3.002452  -13.671745  -22.367767 H    1804 MOH     0.0372 ****
11129 HC3    -4.718337  -14.143681  -22.504946 H    1804 MOH     0.0372 ****
11130 O1     -3.798041  -14.671954  -20.764049 O    1804 MOH    -0.6497 ****
11131 HO1    -2.948759  -15.105922  -20.872236 H    1804 MOH     0.4215 ****
11132 HC1     1.584018  -15.419456  -14.798189 H    1805 MOH     0.0372 ****
11133 C1      2.455240  -14.916086  -15.217503 C    1805 MOH     0.1166 ****
11134 HC2     2.157327  -13.966909  -15.660859 H    1805 MOH     0.0372 ****
11135 HC3     2.894026  -15.527642  -16.006635 H    1805 MOH     0.0372 ****
11136 O1      3.424034  -14.640927  -14.231797 O    1805 MOH    -0.6497 ****
11137 HO1     3.854160  -15.479061  -14.048656 H    1805 MOH     0.4215 ****
11138 HC1   -15.130272   -1.527175  -12.097749 H    1806 MOH     0.0372 ****
11139 C1    -14.267711   -1.064222  -12.577167 C    1806 MOH     0.1166 ****
11140 HC2   -13.480782   -0.949504  -11.831169 H    1806 MOH     0.0372 ****
11141 HC3   -14.584676   -0.072178  -12.899608 H    1806 MOH     0.0372 ****
11142 O1    -13.884927   -1.851733  -13.736115 O    1806 MOH    -0.6497 ****
11143 HO1   -14.578902   -1.805601  -14.397260 H    1806 MOH     0.4215 ****
11144 HC1    -8.443979   -6.089758   -5.837025 H    1807 MOH     0.0372 ****
11145 C1     -7.836029   -5.218965   -6.085220 C    1807 MOH     0.1166 ****
11146 HC2    -6.786406   -5.488408   -6.199771 H    1807 MOH     0.0372 ****
11147 HC3    -7.892609   -4.496773   -5.269925 H    1807 MOH     0.0372 ****
11148 O1     -8.230936   -4.656807   -7.295079 O    1807 MOH    -0.6497 ****
11149 HO1    -7.949189   -5.255299   -7.990872 H    1807 MOH     0.4215 ****
11150 HC1    -6.971158   -9.095690  -26.546061 H    1808 MOH     0.0372 ****
11151 C1     -6.047397   -8.907488  -27.094069 C    1808 MOH     0.1166 ****
11152 HC2    -5.456768   -9.822372  -27.056592 H    1808 MOH     0.0372 ****
11153 HC3    -5.524895   -8.084051  -26.606873 H    1808 MOH     0.0372 ****
11154 O1     -6.320484   -8.555170  -28.448179 O    1808 MOH    -0.6497 ****
11155 HO1    -5.538752   -8.133041  -28.811631 H    1808 MOH     0.4215 ****
11156 HC1    -2.863311    0.160115  -16.524944 H    1809 MOH     0.0372 ****
11157 C1     -3.878293   -0.223230  -16.628889 C    1809 MOH     0.1166 ****
11158 HC2    -4.599403    0.594083  -16.607676 H    1809 MOH     0.0372 ****
11159 HC3    -4.113274   -0.918069  -15.822787 H    1809 MOH     0.0372 ****
11160 O1     -4.005887   -0.935215  -17.811171 O    1809 MOH    -0.6497 ****
11161 HO1    -3.285354   -1.568408  -17.842991 H    1809 MOH     0.4215 ****
11162 HC1    -9.384482  -13.833820  -15.635404 H    1810 MOH     0.0372 ****
11163 C1     -8.527694  -14.091833  -16.259072 C    1810 MOH     0.1166 ****
11164 HC2    -8.341787  -13.298607  -16.982442 H    1810 MOH     0.0372 ****
11165 HC3    -8.773645  -14.995695  -16.816272 H    1810 MOH     0.0372 ****
11166 O1     -7.364333  -14.282485  -15.457920 O    1810 MOH    -0.6497 ****
11167 HO1    -6.668049  -14.630312  -16.019363 H    1810 MOH     0.4215 ****
11168 HC1    -3.329810  -14.173891  -16.452112 H    1811 MOH     0.0372 ****
11169 C1     -3.828063  -14.949563  -17.031940 C    1811 MOH     0.1166 ****
11170 HC2    -3.101179  -15.695024  -17.354380 H    1811 MOH     0.0372 ****
11171 HC3    -4.290521  -14.475586  -17.898145 H    1811 MOH     0.0372 ****
11172 O1     -4.803208  -15.580306  -16.235030 O    1811 MOH    -0.6497 ****
11173 HO1    -4.331513  -15.949363  -15.485497 H    1811 MOH     0.4215 ****
11174 HC1     0.010739   -8.122018   -9.265079 H    1812 MOH     0.0372 ****
11175 C1     -0.611645   -7.227546   -9.274271 C    1812 MOH     0.1166 ****
11176 HC2    -0.167662   -6.440443   -8.664745 H    1812 MOH     0.0372 ****
11177 HC3    -1.583325   -7.505563   -8.864856 H    1812 MOH     0.0372 ****
11178 O1     -0.791201   -6.774799  -10.595854 O    1812 MOH    -0.6497 ****
11179 HO1     0.066164   -6.499231  -10.928901 H    1812 MOH     0.4215 ****
11180 HC1    -4.005310   -2.475128  -20.745664 H    1813 MOH     0.0372 ****
11181 C1     -3.412371   -2.813566  -21.594900 C    1813 MOH     0.1166 ****
11182 HC2    -3.045176   -3.809283  -21.346705 H    1813 MOH     0.0372 ****
11183 HC3    -2.565398   -2.143630  -21.746928 H    1813 MOH     0.0372 ****
11184 O1     -4.216620   -2.864597  -22.765161 O    1813 MOH    -0.6497 ****
11185 HO1    -3.809588   -3.514936  -23.342868 H    1813 MOH     0.4215 ****
11186 HC1    -8.248834   -2.154245  -15.083153 H    1814 MOH     0.0372 ****
11187 C1     -8.067546   -3.192420  -14.803846 C    1814 MOH     0.1166 ****
11188 HC2    -8.726880   -3.829696  -15.392866 H    1814 MOH     0.0372 ****
11189 HC3    -8.292135   -3.347146  -13.748136 H    1814 MOH     0.0372 ****
11190 O1     -6.737331   -3.588013  -15.044970 O    1814 MOH    -0.6497 ****
11191 HO1    -6.557775   -3.479827  -15.981886 H    1814 MOH     0.4215 ****
11192 HC1    -4.360380   -7.942389  -11.424583 H    1815 MOH     0.0372 ****
11193 C1     -3.906583   -7.063022  -10.967792 C    1815 MOH     0.1166 ****
11194 HC2    -3.069425   -6.746221  -11.590046 H    1815 MOH     0.0372 ****
11195 HC3    -3.602897   -7.312054   -9.950972 H    1815 MOH     0.0372 ****
11196 O1     -4.856901   -6.065263  -11.003147 O    1815 MOH    -0.6497 ****
11197 HO1    -5.184836   -6.009742  -11.904001 H    1815 MOH     0.4215 ****
11198 HC1   -12.527577    3.530205  -13.753793 H    1816 MOH     0.0372 ****
11199 C1    -13.435172    3.466518  -13.154166 C    1816 MOH     0.1166 ****
11200 HC2   -14.046008    2.619811  -13.466707 H    1816 MOH     0.0372 ****
11201 HC3   -13.984232    4.398549  -13.286395 H    1816 MOH     0.0372 ****
11202 O1    -13.063358    3.283214  -11.829755 O    1816 MOH    -0.6497 ****
11203 HO1   -12.536237    2.480598  -11.831169 H    1816 MOH     0.4215 ****
11204 HC1    -0.738084  -11.882801   -9.581862 H    1817 MOH     0.0372 ****
11205 C1      0.084640  -12.573558   -9.767124 C    1817 MOH     0.1166 ****
11206 HC2     0.360036  -12.452308  -10.814350 H    1817 MOH     0.0372 ****
11207 HC3    -0.223665  -13.613366   -9.660351 H    1817 MOH     0.0372 ****
11208 O1      1.174677  -12.262881   -8.882534 O    1817 MOH    -0.6497 ****
11209 HO1     1.785514  -13.003443   -8.869806 H    1817 MOH     0.4215 ****
11210 HC1    -4.990846  -10.541298  -18.777079 H    1818 MOH     0.0372 ****
11211 C1     -4.063622  -10.718069  -18.233314 C    1818 MOH     0.1166 ****
11212 HC2    -4.129440  -11.642751  -17.659850 H    1818 MOH     0.0372 ****
11213 HC3    -3.840187   -9.881568  -17.570755 H    1818 MOH     0.0372 ****
11214 O1     -3.060187  -10.820131  -19.163867 O    1818 MOH    -0.6497 ****
11215 HO1    -2.250165  -10.479244  -18.777079 H    1818 MOH     0.4215 ****
11216 HC1    -7.087783  -10.397186  -24.049974 H    1819 MOH     0.0372 ****
11217 C1     -6.807768  -11.305538  -23.516109 C    1819 MOH     0.1166 ****
11218 HC2    -5.999477  -11.801152  -24.053510 H    1819 MOH     0.0372 ****
11219 HC3    -7.638575  -12.011400  -23.492774 H    1819 MOH     0.0372 ****
11220 O1     -6.370136  -11.044260  -22.196648 O    1819 MOH    -0.6497 ****
11221 HO1    -6.717701  -11.748896  -21.645104 H    1819 MOH     0.4215 ****
11222 HC1     4.096069  -10.925051  -10.646765 H    1820 MOH     0.0372 ****
11223 C1      3.264685  -10.241643  -10.816471 C    1820 MOH     0.1166 ****
11224 HC2     2.342657  -10.701739  -10.459382 H    1820 MOH     0.0372 ****
11225 HC3     3.194248  -10.053441  -11.887738 H    1820 MOH     0.0372 ****
11226 O1      3.592620   -9.020981  -10.164518 O    1820 MOH    -0.6497 ****
11227 HO1     4.205766   -9.218165   -9.452462 H    1820 MOH     0.4215 ****
11228 HC1     3.855892   -8.098748  -14.624241 H    1821 MOH     0.0372 ****
11229 C1      2.846106   -8.419631  -14.880214 C    1821 MOH     0.1166 ****
11230 HC2     2.148667   -7.988929  -14.161086 H    1821 MOH     0.0372 ****
11231 HC3     2.764700   -9.505980  -14.845565 H    1821 MOH     0.0372 ****
11232 O1      2.491036   -7.960352  -16.152299 O    1821 MOH    -0.6497 ****
11233 HO1     3.089748   -8.367784  -16.781624 H    1821 MOH     0.4215 ****
11234 HC1    -2.653733  -20.884676  -12.209471 H    1822 MOH     0.0372 ****
11235 C1     -2.072341  -20.127376  -11.682677 C    1822 MOH     0.1166 ****
11236 HC2    -1.018677  -20.371508  -11.819855 H    1822 MOH     0.0372 ****
11237 HC3    -2.302126  -20.116761  -10.617774 H    1822 MOH     0.0372 ****
11238 O1     -2.200513  -18.867113  -12.234927 O    1822 MOH    -0.6497 ****
11239 HO1    -1.402037  -18.390687  -11.993804 H    1822 MOH     0.4215 ****
11240 HC1    -7.498279   -9.527617   -7.127495 H    1823 MOH     0.0372 ****
11241 C1     -7.153023  -10.370650   -7.725000 C    1823 MOH     0.1166 ****
11242 HC2    -6.412860  -10.902597   -7.126081 H    1823 MOH     0.0372 ****
11243 HC3    -6.711350   -9.984855   -8.643532 H    1823 MOH     0.0372 ****
11244 O1     -8.205533  -11.288392   -8.058755 O    1823 MOH    -0.6497 ****
11245 HO1    -7.926673  -11.801560   -8.820309 H    1823 MOH     0.4215 ****
11246 HC1    -0.340867   -0.990329  -13.350035 H    1824 MOH     0.0372 ****
11247 C1     -0.833347   -0.553911  -14.219069 C    1824 MOH     0.1166 ****
11248 HC2    -1.775583   -0.066463  -13.968753 H    1824 MOH     0.0372 ****
11249 HC3    -1.085649   -1.388371  -14.873850 H    1824 MOH     0.0372 ****
11250 O1      0.004388    0.371179  -14.919105 O    1824 MOH    -0.6497 ****
11251 HO1    -0.536589    1.070917  -15.291043 H    1824 MOH     0.4215 ****
11252 HC1    -2.433185  -21.207192  -16.872133 H    1825 MOH     0.0372 ****
11253 C1     -2.466094  -20.122068  -16.971128 C    1825 MOH     0.1166 ****
11254 HC2    -2.020957  -19.652991  -16.093609 H    1825 MOH     0.0372 ****
11255 HC3    -3.503592  -19.796286  -17.046082 H    1825 MOH     0.0372 ****
11256 O1     -1.780202  -19.744847  -18.136440 O    1825 MOH    -0.6497 ****
11257 HO1    -1.678588  -18.791587  -18.096135 H    1825 MOH     0.4215 ****
11258 HC1     6.000171  -12.390254  -15.689144 H    1826 MOH     0.0372 ****
11259 C1      5.094308  -12.065697  -16.200382 C    1826 MOH     0.1166 ****
11260 HC2     4.208653  -12.458432  -15.701165 H    1826 MOH     0.0372 ****
11261 HC3     5.101814  -12.413932  -17.233465 H    1826 MOH     0.0372 ****
11262 O1      5.001355  -10.673570  -16.186240 O    1826 MOH    -0.6497 ****
11263 HO1     5.271555  -10.388204  -15.310134 H    1826 MOH     0.4215 ****
11264 HC1    -1.465546   -7.826446  -13.704295 H    1827 MOH     0.0372 ****
11265 C1     -0.802170   -8.648250  -13.434887 C    1827 MOH     0.1166 ****
11266 HC2     0.213966   -8.262047  -13.357106 H    1827 MOH     0.0372 ****
11267 HC3    -0.816027   -9.430862  -14.193613 H    1827 MOH     0.0372 ****
11268 O1     -1.180335   -9.075278  -12.147953 O    1827 MOH    -0.6497 ****
11269 HO1    -1.126641   -8.306138  -11.576611 H    1827 MOH     0.4215 ****
11270 HC1     2.314366   -1.627196   -9.600954 H    1828 MOH     0.0372 ****
11271 C1      1.974884   -2.373066  -10.320082 C    1828 MOH     0.1166 ****
11272 HC2     1.468548   -3.210383   -9.838542 H    1828 MOH     0.0372 ****
11273 HC3     2.861694   -2.769883  -10.815057 H    1828 MOH     0.0372 ****
11274 O1      1.133685   -1.752528  -11.274676 O    1828 MOH    -0.6497 ****
11275 HO1     1.663115   -1.067488  -11.690455 H    1828 MOH     0.4215 ****
11276 HC1    -6.979241   -8.863397  -18.581918 H    1829 MOH     0.0372 ****
11277 C1     -7.609707   -9.176932  -17.750360 C    1829 MOH     0.1166 ****
11278 HC2    -8.586007   -9.489650  -18.120884 H    1829 MOH     0.0372 ****
11279 HC3    -7.780026   -8.349821  -17.060224 H    1829 MOH     0.0372 ****
11280 O1     -7.007531  -10.231029  -17.054567 O    1829 MOH    -0.6497 ****
11281 HO1    -7.658205  -10.585388  -16.445041 H    1829 MOH     0.4215 ****
11282 HC1    -4.317079   -4.130983  -15.438121 H    1830 MOH     0.0372 ****
11283 C1     -3.660632   -3.855415  -14.612927 C    1830 MOH     0.1166 ****
11284 HC2    -4.207382   -3.891341  -13.669647 H    1830 MOH     0.0372 ****
11285 HC3    -3.314221   -2.832753  -14.763541 H    1830 MOH     0.0372 ****
11286 O1     -2.541727   -4.727434  -14.547873 O    1830 MOH    -0.6497 ****
11287 HO1    -1.936664   -4.400835  -13.877536 H    1830 MOH     0.4215 ****
11288 HC1   -14.979006  -14.198794  -15.385088 H    1831 MOH     0.0372 ****
11289 C1    -14.335261  -13.414549  -15.781775 C    1831 MOH     0.1166 ****
11290 HC2   -14.301197  -12.613158  -15.044263 H    1831 MOH     0.0372 ****
11291 HC3   -14.734210  -12.974457  -16.696771 H    1831 MOH     0.0372 ****
11292 O1    -13.023521  -13.879136  -16.012292 O    1831 MOH    -0.6497 ****
11293 HO1   -12.581271  -13.092033  -16.337561 H    1831 MOH     0.4215 ****
11294 HC1    -5.703297   -2.491866   -8.878291 H    1832 MOH     0.0372 ****
11295 C1     -5.121328   -2.249366   -9.767832 C    1832 MOH     0.1166 ****
11296 HC2    -5.157701   -3.071170  -10.482717 H    1832 MOH     0.0372 ****
11297 HC3    -4.094222   -2.106071   -9.430542 H    1832 MOH     0.0372 ****
11298 O1     -5.587249   -1.005026  -10.299576 O    1832 MOH    -0.6497 ****
11299 HO1    -5.171557   -0.327742   -9.761468 H    1832 MOH     0.4215 ****
11300 HC1    -8.208997   -7.058123  -11.206794 H    1833 MOH     0.0372 ****
11301 C1     -8.046184   -7.282251  -10.152498 C    1833 MOH     0.1166 ****
11302 HC2    -7.478649   -8.208975  -10.060574 H    1833 MOH     0.0372 ****
11303 HC3    -9.029989   -7.399827   -9.698535 H    1833 MOH     0.0372 ****
11304 O1     -7.353364   -6.205701   -9.560649 O    1833 MOH    -0.6497 ****
11305 HO1    -6.515051   -6.115070  -10.018855 H    1833 MOH     0.4215 ****
11306 HC1    -8.486702   -7.163043  -20.542725 H    1834 MOH     0.0372 ****
11307 C1     -8.620070   -8.185705  -20.895571 C    1834 MOH     0.1166 ****
11308 HC2    -9.618886   -8.263272  -21.324078 H    1834 MOH     0.0372 ****
11309 HC3    -8.546747   -8.902589  -20.078156 H    1834 MOH     0.0372 ****
11310 O1     -7.699774   -8.462906  -21.907441 O    1834 MOH    -0.6497 ****
11311 HO1    -7.583727   -9.410858  -21.999365 H    1834 MOH     0.4215 ****
11312 HC1    -6.299700  -16.437628  -21.585000 H    1835 MOH     0.0372 ****
11313 C1     -7.036398  -16.091841  -20.860216 C    1835 MOH     0.1166 ****
11314 HC2    -7.307176  -16.899765  -20.179272 H    1835 MOH     0.0372 ****
11315 HC3    -7.945148  -15.792187  -21.380646 H    1835 MOH     0.0372 ****
11316 O1     -6.596458  -15.010392  -20.066135 O    1835 MOH    -0.6497 ****
11317 HO1    -5.649026  -15.078977  -19.930370 H    1835 MOH     0.4215 ****
11318 HC1    -5.351113    0.117657  -21.232861 H    1836 MOH     0.0372 ****
11319 C1     -6.198663   -0.546971  -21.063155 C    1836 MOH     0.1166 ****
11320 HC2    -7.064111    0.096836  -20.906885 H    1836 MOH     0.0372 ****
11321 HC3    -5.965991   -1.148729  -20.184929 H    1836 MOH     0.0372 ****
11322 O1     -6.332031   -1.248750  -22.278672 O    1836 MOH    -0.6497 ****
11323 HO1    -5.486213   -1.654549  -22.483733 H    1836 MOH     0.4215 ****
11324 HC1    -7.462483  -18.688300  -15.822787 H    1837 MOH     0.0372 ****
11325 C1     -6.427294  -18.384155  -15.979058 C    1837 MOH     0.1166 ****
11326 HC2    -5.838397  -19.286792  -16.146642 H    1837 MOH     0.0372 ****
11327 HC3    -6.054326  -17.827305  -15.120630 H    1837 MOH     0.0372 ****
11328 O1     -6.429603  -17.652575  -17.155683 O    1837 MOH    -0.6497 ****
11329 HO1    -5.792209  -16.943447  -17.046082 H    1837 MOH     0.4215 ****
11330 HC1     5.600067  -13.496199  -11.252049 H    1838 MOH     0.0372 ****
11331 C1      5.984005  -12.899340  -12.079364 C    1838 MOH     0.1166 ****
11332 HC2     6.671629  -13.516611  -12.657777 H    1838 MOH     0.0372 ****
11333 HC3     6.485145  -12.037528  -11.637422 H    1838 MOH     0.0372 ****
11334 O1      4.918793  -12.459656  -12.866373 O    1838 MOH    -0.6497 ****
11335 HO1     4.389363  -13.215732  -13.128003 H    1838 MOH     0.4215 ****
11336 HC1    -3.933718   -4.500039   -6.651612 H    1839 MOH     0.0372 ****
11337 C1     -3.870210   -5.423089   -7.227904 C    1839 MOH     0.1166 ****
11338 HC2    -2.838485   -5.627213   -7.513575 H    1839 MOH     0.0372 ****
11339 HC3    -4.487397   -5.311229   -8.118859 H    1839 MOH     0.0372 ****
11340 O1     -4.388093   -6.476369   -6.462815 O    1839 MOH    -0.6497 ****
11341 HO1    -4.138100   -7.301031   -6.887079 H    1839 MOH     0.4215 ****
11342 HC1   -15.984750   -5.192428  -15.134065 H    1840 MOH     0.0372 ****
11343 C1    -16.151027   -4.122001  -15.015271 C    1840 MOH     0.1166 ****
11344 HC2   -15.797689   -3.801118  -14.035221 H    1840 MOH     0.0372 ****
11345 HC3   -17.217971   -3.908896  -15.087396 H    1840 MOH     0.0372 ****
11346 O1    -15.463980   -3.407567  -16.025020 O    1840 MOH    -0.6497 ****
11347 HO1   -15.554624   -3.937473  -16.819808 H    1840 MOH     0.4215 ****
11348 HC1    -9.321551    1.123581  -17.982998 H    1841 MOH     0.0372 ****
11349 C1     -8.450329    0.468342  -18.002090 C    1841 MOH     0.1166 ****
11350 HC2    -8.450907   -0.103205  -18.929814 H    1841 MOH     0.0372 ****
11351 HC3    -8.478042   -0.240785  -17.174068 H    1841 MOH     0.0372 ****
11352 O1     -7.271957    1.252996  -17.928551 O    1841 MOH    -0.6497 ****
11353 HO1    -7.301402    1.763714  -17.116085 H    1841 MOH     0.4215 ****
11354 HC1     5.492102   -8.039552  -12.516356 H    1842 MOH     0.0372 ****
11355 C1      6.132384   -8.914836  -12.407461 C    1842 MOH     0.1166 ****
11356 HC2     5.982273   -9.315736  -11.404784 H    1842 MOH     0.0372 ****
11357 HC3     7.171037   -8.602118  -12.513527 H    1842 MOH     0.0372 ****
11358 O1      5.753065   -9.856665  -13.410846 O    1842 MOH    -0.6497 ****
11359 HO1     5.682051  -10.729908  -13.018401 H    1842 MOH     0.4215 ****
11360 HC1   -13.506763   -5.641502  -15.457920 H    1843 MOH     0.0372 ****
11361 C1    -13.239450   -6.646201  -15.129115 C    1843 MOH     0.1166 ****
11362 HC2   -12.294905   -6.935649  -15.589442 H    1843 MOH     0.0372 ****
11363 HC3   -14.002130   -7.359819  -15.438828 H    1843 MOH     0.0372 ****
11364 O1    -13.072018   -6.638444  -13.700053 O    1843 MOH    -0.6497 ****
11365 HO1   -13.900516   -6.450650  -13.253161 H    1843 MOH     0.4215 ****
11366 HC1     3.627838   -5.826030   -8.095524 H    1844 MOH     0.0372 ****
11367 C1      4.486358   -5.464322   -8.661209 C    1844 MOH     0.1166 ****
11368 HC2     4.138216   -4.945030   -9.553578 H    1844 MOH     0.0372 ****
11369 HC3     5.115670   -6.304905   -8.954659 H    1844 MOH     0.0372 ****
11370 O1      5.235759   -4.574749   -7.865714 O    1844 MOH    -0.6497 ****
11371 HO1     5.403190   -4.993203   -7.017893 H    1844 MOH     0.4215 ****
11372 HC1     4.426891   -4.504938  -18.027546 H    1845 MOH     0.0372 ****
11373 C1      3.980022   -4.090975  -18.931228 C    1845 MOH     0.1166 ****
11374 HC2     2.952339   -3.772133  -18.759401 H    1845 MOH     0.0372 ****
11375 HC3     4.010622   -4.863380  -19.700561 H    1845 MOH     0.0372 ****
11376 O1      4.790622   -3.026671  -19.319430 O    1845 MOH    -0.6497 ****
11377 HO1     4.972487   -2.480435  -18.551512 H    1845 MOH     0.4215 ****
11378 HC1    -2.347160   -6.757244  -23.433377 H    1846 MOH     0.0372 ****
11379 C1     -3.271497   -6.242035  -23.695007 C    1846 MOH     0.1166 ****
11380 HC2    -3.984525   -6.288983  -22.871227 H    1846 MOH     0.0372 ****
11381 HC3    -3.707397   -6.688250  -24.588083 H    1846 MOH     0.0372 ****
11382 O1     -3.033629   -4.892774  -23.974314 O    1846 MOH    -0.6497 ****
11383 HO1    -2.529025   -4.862564  -24.790315 H    1846 MOH     0.4215 ****
11384 HC1   -10.625208    0.436091  -13.381147 H    1847 MOH     0.0372 ****
11385 C1    -10.995867    0.039273  -12.436453 C    1847 MOH     0.1166 ****
11386 HC2   -10.141388   -0.083609  -11.771065 H    1847 MOH     0.0372 ****
11387 HC3   -11.467562   -0.936440  -12.552418 H    1847 MOH     0.0372 ****
11388 O1    -11.850922    0.974570  -11.874303 O    1847 MOH    -0.6497 ****
11389 HO1   -11.666170    0.976203  -10.932437 H    1847 MOH     0.4215 ****
11390 HC1   -12.087636  -16.976924  -22.893855 H    1848 MOH     0.0372 ****
11391 C1    -11.573794  -16.667880  -21.983808 C    1848 MOH     0.1166 ****
11392 HC2   -10.490685  -16.694008  -22.099774 H    1848 MOH     0.0372 ****
11393 HC3   -11.876903  -17.307197  -21.153665 H    1848 MOH     0.0372 ****
11394 O1    -12.013158  -15.410475  -21.700966 O    1848 MOH    -0.6497 ****
11395 HO1   -12.345134  -15.048359  -22.526159 H    1848 MOH     0.4215 ****
11396 HC1   -11.337081   -4.238760   -7.642976 H    1849 MOH     0.0372 ****
11397 C1    -11.403476   -4.499223   -6.586558 C    1849 MOH     0.1166 ****
11398 HC2   -11.295512   -5.577407   -6.462815 H    1849 MOH     0.0372 ****
11399 HC3   -12.387281   -4.184463   -6.237955 H    1849 MOH     0.0372 ****
11400 O1    -10.419671   -3.780298   -5.863188 O    1849 MOH    -0.6497 ****
11401 HO1    -9.596947   -3.889300   -6.346142 H    1849 MOH     0.4215 ****
11402 HC1    -7.010418   -8.875644   -3.427205 H    1850 MOH     0.0372 ****
11403 C1     -7.420914   -9.832170   -3.104057 C    1850 MOH     0.1166 ****
11404 HC2    -6.642068  -10.594778   -3.082844 H    1850 MOH     0.0372 ****
11405 HC3    -8.206110  -10.111004   -3.806214 H    1850 MOH     0.0372 ****
11406 O1     -8.016739   -9.687650   -1.848236 O    1850 MOH    -0.6497 ****
11407 HO1    -7.396088   -9.238577   -1.269822 H    1850 MOH     0.4215 ****
11408 HC1   -10.627517    1.849855  -16.456355 H    1851 MOH     0.0372 ****
11409 C1    -10.061137    2.154816  -15.576007 C    1851 MOH     0.1166 ****
11410 HC2    -9.675467    1.261161  -15.084568 H    1851 MOH     0.0372 ****
11411 HC3   -10.715274    2.678599  -14.879507 H    1851 MOH     0.0372 ****
11412 O1     -8.966480    2.969271  -15.981179 O    1851 MOH    -0.6497 ****
11413 HO1    -9.317509    3.844556  -16.157956 H    1851 MOH     0.4215 ****
11414 HC1   -18.710998   -7.554961  -17.059517 H    1852 MOH     0.0372 ****
11415 C1    -18.152123   -6.922585  -16.370088 C    1852 MOH     0.1166 ****
11416 HC2   -18.107090   -5.921968  -16.800716 H    1852 MOH     0.0372 ****
11417 HC3   -17.138874   -7.316953  -16.289478 H    1852 MOH     0.0372 ****
11418 O1    -18.817231   -6.910337  -15.081739 O    1852 MOH    -0.6497 ****
11419 HO1   -18.350154   -7.528425  -14.516054 H    1852 MOH     0.4215 ****
11420 HC1   -10.236074  -13.768092  -19.160331 H    1853 MOH     0.0372 ****
11421 C1    -11.118265  -13.184705  -18.899409 C    1853 MOH     0.1166 ****
11422 HC2   -10.814001  -12.186130  -18.588282 H    1853 MOH     0.0372 ****
11423 HC3   -11.653469  -13.674603  -18.086236 H    1853 MOH     0.0372 ****
11424 O1    -11.939257  -13.129592  -20.066842 O    1853 MOH    -0.6497 ****
11425 HO1   -12.029901  -14.018348  -20.419688 H    1853 MOH     0.4215 ****
11426 HC1    -2.699343  -22.760577  -13.709245 H    1854 MOH     0.0372 ****
11427 C1     -1.861608  -22.532366  -14.368975 C    1854 MOH     0.1166 ****
11428 HC2    -1.504228  -21.530933  -14.133509 H    1854 MOH     0.0372 ****
11429 HC3    -2.212060  -22.577274  -15.399937 H    1854 MOH     0.0372 ****
11430 O1     -0.780808  -23.474195  -14.164621 O    1854 MOH    -0.6497 ****
11431 HO1     0.052308  -23.085951  -14.442514 H    1854 MOH     0.4215 ****
11432 HC1    -8.505755  -11.905255  -14.093911 H    1855 MOH     0.0372 ****
11433 C1     -8.817524  -10.861772  -14.129266 C    1855 MOH     0.1166 ****
11434 HC2    -8.011543  -10.204493  -13.801169 H    1855 MOH     0.0372 ****
11435 HC3    -9.660456  -10.738481  -13.450444 H    1855 MOH     0.0372 ****
11436 O1     -9.270744  -10.515578  -15.423272 O    1855 MOH    -0.6497 ****
11437 HO1    -9.482054   -9.579873  -15.393573 H    1855 MOH     0.4215 ****
11438 HC1   -17.209888  -10.696024  -13.727630 H    1856 MOH     0.0372 ****
11439 C1    -16.622145   -9.780323  -13.666111 C    1856 MOH     0.1166 ****
11440 HC2   -16.156223   -9.569667  -14.629191 H    1856 MOH     0.0372 ****
11441 HC3   -15.833485   -9.928925  -12.929306 H    1856 MOH     0.0372 ****
11442 O1    -17.403877   -8.655599  -13.290638 O    1856 MOH    -0.6497 ****
11443 HO1   -17.803981   -8.819715  -12.433624 H    1856 MOH     0.4215 ****
11444 HC1    -3.392741   -0.022780  -11.248513 H    1857 MOH     0.0372 ****
11445 C1     -2.447041    0.320148  -10.828492 C    1857 MOH     0.1166 ****
11446 HC2    -2.560779    1.294637  -10.352609 H    1857 MOH     0.0372 ****
11447 HC3    -1.717271    0.433641  -11.630351 H    1857 MOH     0.0372 ****
11448 O1     -2.005368   -0.602085   -9.856220 O    1857 MOH    -0.6497 ****
11449 HO1    -1.173984   -0.990329  -10.138356 H    1857 MOH     0.4215 ****
11450 HC1    -3.474725   -8.088542  -16.177755 H    1858 MOH     0.0372 ****
11451 C1     -2.692992   -7.415340  -16.529187 C    1858 MOH     0.1166 ****
11452 HC2    -2.133540   -7.850125  -17.357209 H    1858 MOH     0.0372 ****
11453 HC3    -2.007678   -7.210400  -15.707529 H    1858 MOH     0.0372 ****
11454 O1     -3.266879   -6.215907  -16.974664 O    1858 MOH    -0.6497 ****
11455 HO1    -3.071734   -5.572508  -16.288770 H    1858 MOH     0.4215 ****
11456 HC1     1.425132   14.652358  -15.906226 H    1859 MOH     0.0372 ****
11457 C1      0.388788   14.791162  -15.599341 C    1859 MOH     0.1166 ****
11458 HC2    -0.174706   15.155320  -16.457769 H    1859 MOH     0.0372 ****
11459 HC3     0.318928   15.541114  -14.810917 H    1859 MOH     0.0372 ****
11460 O1     -0.136601   13.548454  -15.182148 O    1859 MOH    -0.6497 ****
11461 HO1    -0.899281   13.700731  -14.619998 H    1859 MOH     0.4215 ****
11462 HC1    14.291382   10.099573  -13.089112 H    1860 MOH     0.0372 ****
11463 C1     14.724972   10.292674  -12.108355 C    1860 MOH     0.1166 ****
11464 HC2    15.010761   11.343505  -12.057443 H    1860 MOH     0.0372 ****
11465 HC3    15.612937    9.673362  -11.981783 H    1860 MOH     0.0372 ****
11466 O1     13.770612    9.977915  -11.100728 O    1860 MOH    -0.6497 ****
11467 HO1    13.971530    9.086300  -10.807986 H    1860 MOH     0.4215 ****
11468 HC1     7.654164   -0.754116  -20.721623 H    1861 MOH     0.0372 ****
11469 C1      7.467102   -1.740036  -20.296652 C    1861 MOH     0.1166 ****
11470 HC2     7.075081   -1.645322  -19.284075 H    1861 MOH     0.0372 ****
11471 HC3     8.424349   -2.256470  -20.228062 H    1861 MOH     0.0372 ****
11472 O1      6.625903   -2.543877  -21.145887 O    1861 MOH    -0.6497 ****
11473 HO1     5.909988   -2.890071  -20.608486 H    1861 MOH     0.4215 ****
11474 HC1    10.284571   -0.282181  -14.084718 H    1862 MOH     0.0372 ****
11475 C1      9.435867    0.152603  -13.556510 C    1862 MOH     0.1166 ****
11476 HC2     9.299612    1.179756  -13.894507 H    1862 MOH     0.0372 ****
11477 HC3     9.600411    0.140356  -12.478879 H    1862 MOH     0.0372 ****
11478 O1      8.270196   -0.545501  -13.890264 O    1862 MOH    -0.6497 ****
11479 HO1     8.297332   -1.346076  -13.360641 H    1862 MOH     0.4215 ****
11480 HC1    18.361124    8.488217  -17.704398 H    1863 MOH     0.0372 ****
11481 C1     18.166557    9.229596  -16.929409 C    1863 MOH     0.1166 ****
11482 HC2    17.102501    9.271645  -16.696771 H    1863 MOH     0.0372 ****
11483 HC3    18.467934   10.217965  -17.276598 H    1863 MOH     0.0372 ****
11484 O1     18.836284    8.899323  -15.718135 O    1863 MOH    -0.6497 ****
11485 HO1    18.618623    8.004851  -15.445899 H    1863 MOH     0.4215 ****
11486 HC1     2.474754   13.201035  -11.237200 H    1864 MOH     0.0372 ****
11487 C1      3.078663   13.752578  -10.516658 C    1864 MOH     0.1166 ****
11488 HC2     3.890417   13.117344  -10.163104 H    1864 MOH     0.0372 ****
11489 HC3     2.430298   14.038352   -9.687929 H    1864 MOH     0.0372 ****
11490 O1      3.583267   14.876486  -11.172146 O    1864 MOH    -0.6497 ****
11491 HO1     4.396176   15.138173  -10.733032 H    1864 MOH     0.4215 ****
11492 HC1     9.178946    6.793578  -23.698542 H    1865 MOH     0.0372 ****
11493 C1      8.386821    6.261222  -23.172455 C    1865 MOH     0.1166 ****
11494 HC2     8.413957    6.518827  -22.113916 H    1865 MOH     0.0372 ****
11495 HC3     8.552521    5.193653  -23.314583 H    1865 MOH     0.0372 ****
11496 O1      7.158220    6.676819  -23.728241 O    1865 MOH    -0.6497 ****
11497 HO1     6.463667    6.317969  -23.170334 H    1865 MOH     0.4215 ****
11498 HC1     0.536589    7.879519   -6.852430 H    1866 MOH     0.0372 ****
11499 C1     -0.483589    7.586805   -6.604236 C    1866 MOH     0.1166 ****
11500 HC2    -0.644669    7.644368   -5.528727 H    1866 MOH     0.0372 ****
11501 HC3    -0.692012    6.564551   -6.921020 H    1866 MOH     0.0372 ****
11502 O1     -1.369821    8.479235   -7.205277 O    1866 MOH    -0.6497 ****
11503 HO1    -0.918333    8.855640   -7.964709 H    1866 MOH     0.4215 ****
11504 HC1    13.244069   12.852391  -16.175633 H    1867 MOH     0.0372 ****
11505 C1     13.292566   11.764817  -16.226545 C    1867 MOH     0.1166 ****
11506 HC2    12.914402   11.410050  -17.184675 H    1867 MOH     0.0372 ****
11507 HC3    12.685771   11.318194  -15.438828 H    1867 MOH     0.0372 ****
11508 O1     14.629132   11.330441  -16.153006 O    1867 MOH    -0.6497 ****
11509 HO1    14.596801   10.371058  -16.131793 H    1867 MOH     0.4215 ****
11510 HC1     4.333822   11.827688  -21.749049 H    1868 MOH     0.0372 ****
11511 C1      4.379433   11.372899  -22.738998 C    1868 MOH     0.1166 ****
11512 HC2     5.296843   10.794003  -22.847893 H    1868 MOH     0.0372 ****
11513 HC3     4.369041   12.150612  -23.501967 H    1868 MOH     0.0372 ****
11514 O1      3.276117   10.536398  -22.956080 O    1868 MOH    -0.6497 ****
11515 HO1     3.535347    9.648867  -22.698693 H    1868 MOH     0.4215 ****
11516 HC1    12.440975    7.270820  -23.253772 H    1869 MOH     0.0372 ****
11517 C1     12.639583    8.231428  -22.779303 C    1869 MOH     0.1166 ****
11518 HC2    13.704217    8.448617  -22.862742 H    1869 MOH     0.0372 ****
11519 HC3    12.410375    8.196319  -21.714401 H    1869 MOH     0.0372 ****
11520 O1     11.846304    9.227146  -23.430549 O    1869 MOH    -0.6497 ****
11521 HO1    11.893647   10.003226  -22.866985 H    1869 MOH     0.4215 ****
11522 HC1    -4.864522   10.666221  -10.648180 H    1870 MOH     0.0372 ****
11523 C1     -3.824137   10.693574  -10.974156 C    1870 MOH     0.1166 ****
11524 HC2    -3.239859   10.053849  -10.311597 H    1870 MOH     0.0372 ****
11525 HC3    -3.482923   11.727259  -10.920416 H    1870 MOH     0.0372 ****
11526 O1     -3.757164   10.211433  -12.297153 O    1870 MOH    -0.6497 ****
11527 HO1    -4.351835    9.458623  -12.340993 H    1870 MOH     0.4215 ****
11528 HC1    -1.984122    5.984022  -14.808089 H    1871 MOH     0.0372 ****
11529 C1     -1.069599    6.290208  -15.315792 C    1871 MOH     0.1166 ****
11530 HC2    -0.474351    6.944630  -14.678688 H    1871 MOH     0.0372 ****
11531 HC3    -1.344995    6.836444  -16.218060 H    1871 MOH     0.0372 ****
11532 O1     -0.367541    5.150787  -15.713893 O    1871 MOH    -0.6497 ****
11533 HO1     0.567189    5.349604  -15.624090 H    1871 MOH     0.4215 ****
11534 HC1    11.282233    1.803559  -18.241799 H    1872 MOH     0.0372 ****
11535 C1     11.329575    2.526975  -17.427212 C    1872 MOH     0.1166 ****
11536 HC2    10.536296    3.254474  -17.598332 H    1872 MOH     0.0372 ****
11537 HC3    12.290286    3.040552  -17.473881 H    1872 MOH     0.0372 ****
11538 O1     11.144246    1.885209  -16.133207 O    1872 MOH    -0.6497 ****
11539 HO1    10.952566    2.560860  -15.477719 H    1872 MOH     0.4215 ****
11540 HC1    -5.038305    5.646400  -19.663791 H    1873 MOH     0.0372 ****
11541 C1     -4.995581    5.888083  -18.601717 C    1873 MOH     0.1166 ****
11542 HC2    -3.958660    5.826030  -18.270791 H    1873 MOH     0.0372 ****
11543 HC3    -5.593138    5.186305  -18.019768 H    1873 MOH     0.0372 ****
11544 O1     -5.429171    7.181822  -18.332309 O    1873 MOH    -0.6497 ****
11545 HO1    -6.198779    7.373291  -18.873246 H    1873 MOH     0.4215 ****
11546 HC1    18.040118   10.518027  -13.922791 H    1874 MOH     0.0372 ****
11547 C1     18.122679   11.457815  -13.376905 C    1874 MOH     0.1166 ****
11548 HC2    17.295913   12.113462  -13.649848 H    1874 MOH     0.0372 ****
11549 HC3    19.079925   11.919952  -13.621564 H    1874 MOH     0.0372 ****
11550 O1     18.081687   11.099781  -12.035523 O    1874 MOH    -0.6497 ****
11551 HO1    18.305699   11.842793  -11.471252 H    1874 MOH     0.4215 ****
11552 HC1     5.947516   15.142256  -14.179471 H    1875 MOH     0.0372 ****
11553 C1      5.281831   16.001210  -14.094618 C    1875 MOH     0.1166 ****
11554 HC2     4.239714   15.681143  -14.101689 H    1875 MOH     0.0372 ****
11555 HC3     5.416931   16.625830  -14.977087 H    1875 MOH     0.0372 ****
11556 O1      5.507575   16.798111  -12.891122 O    1875 MOH    -0.6497 ****
11557 HO1     5.434829   16.231054  -12.121083 H    1875 MOH     0.4215 ****
11558 HC1     6.021994    4.488200   -5.229620 H    1876 MOH     0.0372 ****
11559 C1      6.321639    3.441043   -5.244470 C    1876 MOH     0.1166 ****
11560 HC2     6.955570    3.252432   -6.111382 H    1876 MOH     0.0372 ****
11561 HC3     5.453882    2.787029   -5.323666 H    1876 MOH     0.0372 ****
11562 O1      7.026584    3.129958   -4.050873 O    1876 MOH    -0.6497 ****
11563 HO1     7.460751    2.281618   -4.169667 H    1876 MOH     0.4215 ****
11564 HC1    -1.728933    7.755819  -19.277004 H    1877 MOH     0.0372 ****
11565 C1     -2.269333    8.625388  -19.650356 C    1877 MOH     0.1166 ****
11566 HC2    -2.712738    8.295932  -20.590101 H    1877 MOH     0.0372 ****
11567 HC3    -1.546490    9.428412  -19.796727 H    1877 MOH     0.0372 ****
11568 O1     -3.260643    8.963826  -18.656871 O    1877 MOH    -0.6497 ****
11569 HO1    -3.896306    8.249800  -18.574140 H    1877 MOH     0.4215 ****
11570 HC1    -3.285469    0.983797  -23.586112 H    1878 MOH     0.0372 ****
11571 C1     -2.872664    1.991353  -23.622882 C    1878 MOH     0.1166 ****
11572 HC2    -2.958112    2.462064  -22.643539 H    1878 MOH     0.0372 ****
11573 HC3    -3.449437    2.579231  -24.337060 H    1878 MOH     0.0372 ****
11574 O1     -1.533211    1.935832  -24.054217 O    1878 MOH    -0.6497 ****
11575 HO1    -1.499725    1.275286  -24.750010 H    1878 MOH     0.4215 ****
11576 HC1    12.827799   -0.859444  -17.637223 H    1879 MOH     0.0372 ****
11577 C1     12.147681   -1.428134  -17.002948 C    1879 MOH     0.1166 ****
11578 HC2    12.502174   -1.390984  -15.972694 H    1879 MOH     0.0372 ****
11579 HC3    12.092832   -2.464677  -17.334581 H    1879 MOH     0.0372 ****
11580 O1     10.915038   -0.805147  -17.084973 O    1879 MOH    -0.6497 ****
11581 HO1    11.017229    0.087692  -16.749097 H    1879 MOH     0.4215 ****
11582 HC1     2.888137   19.396203  -11.445796 H    1880 MOH     0.0372 ****
11583 C1      2.433762   19.694224  -12.390491 C    1880 MOH     0.1166 ****
11584 HC2     1.352963   19.559502  -12.342408 H    1880 MOH     0.0372 ****
11585 HC3     2.856383   19.069604  -13.178208 H    1880 MOH     0.0372 ****
11586 O1      2.715509   21.051650  -12.649999 O    1880 MOH    -0.6497 ****
11587 HO1     2.445887   21.245976  -13.550853 H    1880 MOH     0.4215 ****
11588 HC1     3.929100   22.309871   -8.322506 H    1881 MOH     0.0372 ****
11589 C1      3.587308   21.640344   -9.111637 C    1881 MOH     0.1166 ****
11590 HC2     3.089055   20.764243   -8.695858 H    1881 MOH     0.0372 ****
11591 HC3     4.459685   21.322318   -9.682272 H    1881 MOH     0.0372 ****
11592 O1      2.806153   22.370292  -10.033704 O    1881 MOH    -0.6497 ****
11593 HO1     2.833289   21.883251  -10.860312 H    1881 MOH     0.4215 ****
11594 HC1     6.695762    5.603943  -12.653534 H    1882 MOH     0.0372 ****
11595 C1      6.555466    5.449625  -13.722680 C    1882 MOH     0.1166 ****
11596 HC2     6.359167    6.404109  -14.211998 H    1882 MOH     0.0372 ****
11597 HC3     5.721195    4.770708  -13.898749 H    1882 MOH     0.0372 ****
11598 O1      7.730951    4.895224  -14.274223 O    1882 MOH    -0.6497 ****
11599 HO1     8.377583    4.794386  -13.572066 H    1882 MOH     0.4215 ****
11600 HC1     9.458961   13.640310  -11.363065 H    1883 MOH     0.0372 ****
11601 C1      9.941625   12.674395  -11.510143 C    1883 MOH     0.1166 ****
11602 HC2     9.168553   11.920360  -11.657928 H    1883 MOH     0.0372 ****
11603 HC3    10.506274   12.431895  -10.610703 H    1883 MOH     0.0372 ****
11604 O1     10.849797   12.702156  -12.633028 O    1883 MOH    -0.6497 ****
11605 HO1    11.561093   13.306363  -12.403926 H    1883 MOH     0.4215 ****
11606 HC1     4.151957    5.397777  -20.022294 H    1884 MOH     0.0372 ****
11607 C1      3.990876    4.384913  -19.653892 C    1884 MOH     0.1166 ****
11608 HC2     3.239743    4.429820  -18.866175 H    1884 MOH     0.0372 ****
11609 HC3     4.915791    3.984422  -19.238820 H    1884 MOH     0.0372 ****
11610 O1      3.539388    3.538206  -20.710309 O    1884 MOH    -0.6497 ****
11611 HO1     3.944111    2.680068  -20.560402 H    1884 MOH     0.4215 ****
11612 HC1    13.157466   -0.485081  -12.408168 H    1885 MOH     0.0372 ****
11613 C1     12.991189   -0.398124  -11.334073 C    1885 MOH     0.1166 ****
11614 HC2    13.063358    0.658015  -11.074565 H    1885 MOH     0.0372 ****
11615 HC3    13.778118   -0.952117  -10.821421 H    1885 MOH     0.0372 ****
11616 O1     11.665593   -0.917007  -11.100021 O    1885 MOH    -0.6497 ****
11617 HO1    11.354401   -0.568363  -10.261392 H    1885 MOH     0.4215 ****
11618 HC1    12.023550   16.912012   -3.227094 H    1886 MOH     0.0372 ****
11619 C1     11.312255   16.086126   -3.237701 C    1886 MOH     0.1166 ****
11620 HC2    11.674253   15.354953   -3.961071 H    1886 MOH     0.0372 ****
11621 HC3    10.323254   16.458448   -3.507815 H    1886 MOH     0.0372 ****
11622 O1     11.248746   15.512537   -1.952888 O    1886 MOH    -0.6497 ****
11623 HO1    10.972773   16.196353   -1.338412 H    1886 MOH     0.4215 ****
11624 HC1     7.953231   18.441718  -20.235133 H    1887 MOH     0.0372 ****
11625 C1      7.372417   18.823022  -19.395091 C    1887 MOH     0.1166 ****
11626 HC2     7.669752   19.830171  -19.103055 H    1887 MOH     0.0372 ****
11627 HC3     7.580263   18.167784  -18.548684 H    1887 MOH     0.0372 ****
11628 O1      5.993127   18.779340  -19.680055 O    1887 MOH    -0.6497 ****
11629 HO1     5.587827   18.104505  -19.130633 H    1887 MOH     0.4215 ****
11630 HC1    12.751012    5.652932  -13.589744 H    1888 MOH     0.0372 ****
11631 C1     12.734269    4.645784  -14.007644 C    1888 MOH     0.1166 ****
11632 HC2    13.235986    3.987279  -13.299830 H    1888 MOH     0.0372 ****
11633 HC3    13.285638    4.617206  -14.948096 H    1888 MOH     0.0372 ****
11634 O1     11.391352    4.210183  -14.156843 O    1888 MOH    -0.6497 ****
11635 HO1    10.899449    4.471054  -13.374076 H    1888 MOH     0.4215 ****
11636 HC1     6.885710    9.443926  -14.458071 H    1889 MOH     0.0372 ****
11637 C1      5.822231    9.644784  -14.589593 C    1889 MOH     0.1166 ****
11638 HC2     5.240262    8.723776  -14.562723 H    1889 MOH     0.0372 ****
11639 HC3     5.657109   10.115494  -15.559036 H    1889 MOH     0.0372 ****
11640 O1      5.371898   10.535174  -13.610250 O    1889 MOH    -0.6497 ****
11641 HO1     5.482172   11.429646  -13.940469 H    1889 MOH     0.4215 ****
11642 HC1    10.598650   12.371474  -17.254678 H    1890 MOH     0.0372 ****
11643 C1     10.194505   12.717261  -18.205737 C    1890 MOH     0.1166 ****
11644 HC2     9.261507   12.193886  -18.417869 H    1890 MOH     0.0372 ****
11645 HC3    10.915615   12.572333  -19.009717 H    1890 MOH     0.0372 ****
11646 O1      9.947976   14.083260  -18.051588 O    1890 MOH    -0.6497 ****
11647 HO1    10.772432   14.538865  -17.863497 H    1890 MOH     0.4215 ****
11648 HC1     6.366095    1.115661  -12.051079 H    1891 MOH     0.0372 ****
11649 C1      6.180188    1.701497  -12.951226 C    1891 MOH     0.1166 ****
11650 HC2     6.198086    1.077694  -13.845009 H    1891 MOH     0.0372 ****
11651 HC3     6.927857    2.486967  -13.060121 H    1891 MOH     0.0372 ****
11652 O1      4.937731    2.289783  -12.821826 O    1891 MOH    -0.6497 ****
11653 HO1     4.639240    2.400418  -13.727630 H    1891 MOH     0.4215 ****
11654 HC1     5.796250   13.043451  -19.718238 H    1892 MOH     0.0372 ****
11655 C1      5.558960   12.756861  -18.692933 C    1892 MOH     0.1166 ****
11656 HC2     6.321062   12.094274  -18.283519 H    1892 MOH     0.0372 ****
11657 HC3     4.605754   12.228179  -18.712025 H    1892 MOH     0.0372 ****
11658 O1      5.457346   13.883218  -17.855012 O    1892 MOH    -0.6497 ****
11659 HO1     6.230995   14.439660  -17.974513 H    1892 MOH     0.4215 ****
11660 HC1     3.487427   -1.938853  -13.366298 H    1893 MOH     0.0372 ****
11661 C1      3.080395   -0.938236  -13.511255 C    1893 MOH     0.1166 ****
11662 HC2     2.034813   -0.983960  -13.816725 H    1893 MOH     0.0372 ****
11663 HC3     3.636960   -0.480590  -14.327963 H    1893 MOH     0.0372 ****
11664 O1      3.235125   -0.114391  -12.354428 O    1893 MOH    -0.6497 ****
11665 HO1     3.518026    0.765792  -12.614644 H    1893 MOH     0.4215 ****
11666 HC1     2.893333    2.466554  -11.143861 H    1894 MOH     0.0372 ****
11667 C1      2.981668    3.452474  -10.687778 C    1894 MOH     0.1166 ****
11668 HC2     2.380646    3.484317   -9.779852 H    1894 MOH     0.0372 ****
11669 HC3     2.629484    4.187729  -11.411148 H    1894 MOH     0.0372 ****
11670 O1      4.321698    3.656190  -10.380186 O    1894 MOH    -0.6497 ****
11671 HO1     4.806672    3.189562  -11.063958 H    1894 MOH     0.4215 ****
11672 HC1    12.838192   14.258806  -18.921329 H    1895 MOH     0.0372 ****
11673 C1     13.258503   15.142256  -18.440496 C    1895 MOH     0.1166 ****
11674 HC2    13.511959   15.884043  -19.197808 H    1895 MOH     0.0372 ****
11675 HC3    14.145313   14.859340  -17.874104 H    1895 MOH     0.0372 ****
11676 O1     12.253336   15.638685  -17.617424 O    1895 MOH    -0.6497 ****
11677 HO1    12.609561   15.835053  -16.748390 H    1895 MOH     0.4215 ****
11678 HC1     7.189397   16.566634   -6.345435 H    1896 MOH     0.0372 ****
11679 C1      7.146673   17.440694   -6.995266 C    1896 MOH     0.1166 ****
11680 HC2     7.947457   18.140839   -6.756971 H    1896 MOH     0.0372 ****
11681 HC3     6.207324   17.956719   -6.800105 H    1896 MOH     0.0372 ****
11682 O1      7.147250   17.086334   -8.386852 O    1896 MOH    -0.6497 ****
11683 HO1     7.256369   17.878744   -8.917889 H    1896 MOH     0.4215 ****
11684 HC1     4.856902   -2.370780  -10.329981 H    1897 MOH     0.0372 ****
11685 C1      5.933082   -2.362615  -10.499687 C    1897 MOH     0.1166 ****
11686 HC2     6.353393   -1.502435   -9.979964 H    1897 MOH     0.0372 ****
11687 HC3     6.136887   -2.302194  -11.568833 H    1897 MOH     0.0372 ****
11688 O1      6.526598   -3.507343   -9.999055 O    1897 MOH    -0.6497 ****
11689 HO1     6.064718   -3.768622   -9.200025 H    1897 MOH     0.4215 ****
11690 HC1     1.503074   12.297173  -17.731268 H    1898 MOH     0.0372 ****
11691 C1      0.920527   11.424338  -17.435698 C    1898 MOH     0.1166 ****
11692 HC2     1.256545   10.509454  -17.922894 H    1898 MOH     0.0372 ****
11693 HC3    -0.099650   11.604376  -17.772988 H    1898 MOH     0.0372 ****
11694 O1      0.913599   11.277369  -16.032798 O    1898 MOH    -0.6497 ****
11695 HO1     0.727115   12.139181  -15.651667 H    1898 MOH     0.4215 ****
11696 HC1     0.672267    9.282668  -13.460343 H    1899 MOH     0.0372 ****
11697 C1      1.703992    8.998935  -13.666111 C    1899 MOH     0.1166 ****
11698 HC2     1.974769    8.173049  -13.009209 H    1899 MOH     0.0372 ****
11699 HC3     2.352356    9.849725  -13.455394 H    1899 MOH     0.0372 ****
11700 O1      1.841978    8.679685  -15.027999 O    1899 MOH    -0.6497 ****
11701 HO1     1.545220    9.472503  -15.480547 H    1899 MOH     0.4215 ****
11702 HC1     6.166332    8.555169  -19.146896 H    1900 MOH     0.0372 ****
11703 C1      6.180766    9.262664  -19.976332 C    1900 MOH     0.1166 ****
11704 HC2     5.190033    9.693774  -20.117754 H    1900 MOH     0.0372 ****
11705 HC3     6.519670    8.769500  -20.887086 H    1900 MOH     0.0372 ****
11706 O1      7.057761   10.314311  -19.669448 O    1900 MOH    -0.6497 ****
11707 HO1     7.254060   10.321252  -18.729703 H    1900 MOH     0.4215 ****
11708 HC1     2.022689    0.807842   -5.268511 H    1901 MOH     0.0372 ****
11709 C1      3.015154    0.828662   -5.718938 C    1901 MOH     0.1166 ****
11710 HC2     3.538233    1.739873   -5.429024 H    1901 MOH     0.0372 ****
11711 HC3     2.955110    0.773141   -6.805054 H    1901 MOH     0.0372 ****
11712 O1      3.750121   -0.236049   -5.270632 O    1901 MOH    -0.6497 ****
11713 HO1     3.303252   -1.032133   -5.566203 H    1901 MOH     0.4215 ****
11714 HC1    -0.037297   13.037327  -12.263212 H    1902 MOH     0.0372 ****
11715 C1     -0.276897   12.404543  -11.409027 C    1902 MOH     0.1166 ****
11716 HC2    -1.322478   12.529058  -11.128305 H    1902 MOH     0.0372 ****
11717 HC3     0.355301   12.711954  -10.575348 H    1902 MOH     0.0372 ****
11718 O1      0.025057   11.054465  -11.725103 O    1902 MOH    -0.6497 ****
11719 HO1    -0.437400   10.781347  -12.520598 H    1902 MOH     0.4215 ****
11720 HC1    -2.630754    5.098939  -21.362969 H    1903 MOH     0.0372 ****
11721 C1     -1.842671    5.133232  -22.115330 C    1903 MOH     0.1166 ****
11722 HC2    -2.262982    5.524742  -23.042347 H    1903 MOH     0.0372 ****
11723 HC3    -1.444877    4.135473  -22.302006 H    1903 MOH     0.0372 ****
11724 O1     -0.836349    6.033420  -21.765312 O    1903 MOH    -0.6497 ****
11725 HO1    -0.009006    5.568425  -21.908855 H    1903 MOH     0.4215 ****
11726 HC1     0.572963    4.478402  -24.081087 H    1904 MOH     0.0372 ****
11727 C1      1.003089    3.908487  -23.256601 C    1904 MOH     0.1166 ****
11728 HC2     1.778470    3.264680  -23.671672 H    1904 MOH     0.0372 ****
11729 HC3     0.257729    3.259781  -22.796274 H    1904 MOH     0.0372 ****
11730 O1      1.572356    4.802959  -22.316856 O    1904 MOH    -0.6497 ****
11731 HO1     1.986893    4.263663  -21.640155 H    1904 MOH     0.4215 ****
11732 HC1    10.920234   13.193686  -21.795718 H    1905 MOH     0.0372 ****
11733 C1     11.663861   12.672762  -22.398173 C    1905 MOH     0.1166 ****
11734 HC2    12.579539   13.262272  -22.446256 H    1905 MOH     0.0372 ****
11735 HC3    11.327843   12.551512  -23.428428 H    1905 MOH     0.0372 ****
11736 O1     12.002189   11.443934  -21.814103 O    1905 MOH    -0.6497 ****
11737 HO1    11.298399   11.172449  -21.220840 H    1905 MOH     0.4215 ****
11738 HC1    11.636148    7.516586  -17.135884 H    1906 MOH     0.0372 ****
11739 C1     11.596889    6.446975  -17.340945 C    1906 MOH     0.1166 ****
11740 HC2    10.818620    6.018723  -16.709499 H    1906 MOH     0.0372 ****
11741 HC3    12.565682    6.010558  -17.096993 H    1906 MOH     0.0372 ****
11742 O1     11.308213    6.155078  -18.709197 O    1906 MOH    -0.6497 ****
11743 HO1    11.737762    5.340622  -18.981433 H    1906 MOH     0.4215 ****
11744 HC1    15.797689    6.196719  -19.382362 H    1907 MOH     0.0372 ****
11745 C1     15.275187    7.125892  -19.154674 C    1907 MOH     0.1166 ****
11746 HC2    14.242885    6.912787  -18.876074 H    1907 MOH     0.0372 ****
11747 HC3    15.315602    7.772149  -20.030779 H    1907 MOH     0.0372 ****
11748 O1     15.962811    7.689275  -18.088357 O    1907 MOH    -0.6497 ****
11749 HO1    16.425269    6.974024  -17.645708 H    1907 MOH     0.4215 ****
11750 HC1     9.197998    1.410824   -9.742376 H    1908 MOH     0.0372 ****
11751 C1      9.449146    0.890308   -8.818187 C    1908 MOH     0.1166 ****
11752 HC2     8.782306    0.036661   -8.697272 H    1908 MOH     0.0372 ****
11753 HC3     9.326170    1.560243   -7.967538 H    1908 MOH     0.0372 ****
11754 O1     10.789176    0.459606   -8.915061 O    1908 MOH    -0.6497 ****
11755 HO1    10.979124   -0.096020   -8.156335 H    1908 MOH     0.4215 ****
11756 HC1    10.670819    8.341247  -19.763493 H    1909 MOH     0.0372 ****
11757 C1      9.733779    8.597219  -20.256347 C    1909 MOH     0.1166 ****
11758 HC2     8.895467    8.265313  -19.643285 H    1909 MOH     0.0372 ****
11759 HC3     9.715304    8.098340  -21.225083 H    1909 MOH     0.0372 ****
11760 O1      9.703180    9.980772  -20.473428 O    1909 MOH    -0.6497 ****
11761 HO1     8.786925   10.222047  -20.625456 H    1909 MOH     0.4215 ****
11762 HC1     0.724228    7.639060  -10.521608 H    1910 MOH     0.0372 ****
11763 C1     -0.285557    8.038327  -10.429684 C    1910 MOH     0.1166 ****
11764 HC2    -0.898126    7.296948   -9.916324 H    1910 MOH     0.0372 ****
11765 HC3    -0.686816    8.230204  -11.425290 H    1910 MOH     0.0372 ****
11766 O1     -0.217430    9.227146   -9.667423 O    1910 MOH    -0.6497 ****
11767 HO1     0.116856    9.920352  -10.241593 H    1910 MOH     0.4215 ****
11768 HC1     7.341240    3.631287  -21.471156 H    1911 MOH     0.0372 ****
11769 C1      7.646658    2.651083  -21.838144 C    1911 MOH     0.1166 ****
11770 HC2     8.595822    2.730691  -22.367767 H    1911 MOH     0.0372 ****
11771 HC3     6.879937    2.258756  -22.504946 H    1911 MOH     0.0372 ****
11772 O1      7.800233    1.730483  -20.764049 O    1911 MOH    -0.6497 ****
11773 HO1     8.649516    1.296515  -20.872236 H    1911 MOH     0.4215 ****
11774 HC1    13.182292    0.982980  -14.798189 H    1912 MOH     0.0372 ****
11775 C1     14.053514    1.486350  -15.217503 C    1912 MOH     0.1166 ****
11776 HC2    13.755601    2.435528  -15.660859 H    1912 MOH     0.0372 ****
11777 HC3    14.492300    0.874794  -16.006635 H    1912 MOH     0.0372 ****
11778 O1     15.022308    1.761510  -14.231797 O    1912 MOH    -0.6497 ****
11779 HO1    15.452434    0.923376  -14.048656 H    1912 MOH     0.4215 ****
11780 HC1    -3.531998   14.875261  -12.097749 H    1913 MOH     0.0372 ****
11781 C1     -2.669437   15.338215  -12.577167 C    1913 MOH     0.1166 ****
11782 HC2    -1.882508   15.452933  -11.831169 H    1913 MOH     0.0372 ****
11783 HC3    -2.986402   16.330258  -12.899608 H    1913 MOH     0.0372 ****
11784 O1     -2.286653   14.550704  -13.736115 O    1913 MOH    -0.6497 ****
11785 HO1    -2.980628   14.596836  -14.397260 H    1913 MOH     0.4215 ****
11786 HC1     3.154296   10.312678   -5.837025 H    1914 MOH     0.0372 ****
11787 C1      3.762245   11.183472   -6.085220 C    1914 MOH     0.1166 ****
11788 HC2     4.811868   10.914028   -6.199771 H    1914 MOH     0.0372 ****
11789 HC3     3.705665   11.905663   -5.269925 H    1914 MOH     0.0372 ****
11790 O1      3.367338   11.745630   -7.295079 O    1914 MOH    -0.6497 ****
11791 HO1     3.649085   11.147138   -7.990872 H    1914 MOH     0.4215 ****
11792 HC1     4.627116    7.306746  -26.546061 H    1915 MOH     0.0372 ****
11793 C1      5.550877    7.494949  -27.094069 C    1915 MOH     0.1166 ****
11794 HC2     6.141506    6.580064  -27.056592 H    1915 MOH     0.0372 ****
11795 HC3     6.073379    8.318385  -26.606873 H    1915 MOH     0.0372 ****
11796 O1      5.277790    7.847267  -28.448179 O    1915 MOH    -0.6497 ****
11797 HO1     6.059522    8.269396  -28.811631 H    1915 MOH     0.4215 ****
11798 HC1     8.734963   16.562551  -16.524944 H    1916 MOH     0.0372 ****
11799 C1      7.719982   16.179206  -16.628889 C    1916 MOH     0.1166 ****
11800 HC2     6.998871   16.996519  -16.607676 H    1916 MOH     0.0372 ****
11801 HC3     7.485000   15.484368  -15.822787 H    1916 MOH     0.0372 ****
11802 O1      7.592387   15.467221  -17.811171 O    1916 MOH    -0.6497 ****
11803 HO1     8.312920   14.834028  -17.842991 H    1916 MOH     0.4215 ****
11804 HC1     2.213792    2.568616  -15.635404 H    1917 MOH     0.0372 ****
11805 C1      3.070580    2.310604  -16.259072 C    1917 MOH     0.1166 ****
11806 HC2     3.256487    3.103830  -16.982442 H    1917 MOH     0.0372 ****
11807 HC3     2.824629    1.406742  -16.816272 H    1917 MOH     0.0372 ****
11808 O1      4.233941    2.119952  -15.457920 O    1917 MOH    -0.6497 ****
11809 HO1     4.930225    1.772124  -16.019363 H    1917 MOH     0.4215 ****
11810 HC1     8.268464    2.228546  -16.452112 H    1918 MOH     0.0372 ****
11811 C1      7.770211    1.452874  -17.031940 C    1918 MOH     0.1166 ****
11812 HC2     8.497095    0.707413  -17.354380 H    1918 MOH     0.0372 ****
11813 HC3     7.307753    1.926850  -17.898145 H    1918 MOH     0.0372 ****
11814 O1      6.795066    0.822130  -16.235030 O    1918 MOH    -0.6497 ****
11815 HO1     7.266762    0.453074  -15.485497 H    1918 MOH     0.4215 ****
11816 HC1     7.592965   13.927309  -20.745664 H    1919 MOH     0.0372 ****
11817 C1      8.185903   13.588871  -21.594900 C    1919 MOH     0.1166 ****
11818 HC2     8.553098   12.593153  -21.346705 H    1919 MOH     0.0372 ****
11819 HC3     9.032876   14.258806  -21.746928 H    1919 MOH     0.0372 ****
11820 O1      7.381654   13.537840  -22.765161 O    1919 MOH    -0.6497 ****
11821 HO1     7.788686   12.887500  -23.342868 H    1919 MOH     0.4215 ****
11822 HC1     3.349440   14.248192  -15.083153 H    1920 MOH     0.0372 ****
11823 C1      3.530728   13.210016  -14.803846 C    1920 MOH     0.1166 ****
11824 HC2     2.871394   12.572741  -15.392866 H    1920 MOH     0.0372 ****
11825 HC3     3.306139   13.055290  -13.748136 H    1920 MOH     0.0372 ****
11826 O1      4.860943   12.814424  -15.044970 O    1920 MOH    -0.6497 ****
11827 HO1     5.040499   12.922610  -15.981886 H    1920 MOH     0.4215 ****
11828 HC1     7.237894    8.460048  -11.424583 H    1921 MOH     0.0372 ****
11829 C1      7.691691    9.339414  -10.967792 C    1921 MOH     0.1166 ****
11830 HC2     8.528849    9.656215  -11.590046 H    1921 MOH     0.0372 ****
11831 HC3     7.995378    9.090383   -9.950972 H    1921 MOH     0.0372 ****
11832 O1      6.741373   10.337173  -11.003147 O    1921 MOH    -0.6497 ****
11833 HO1     6.413438   10.392695  -11.904001 H    1921 MOH     0.4215 ****
11834 HC1    -0.929303   19.932641  -13.753793 H    1922 MOH     0.0372 ****
11835 C1     -1.836897   19.868954  -13.154166 C    1922 MOH     0.1166 ****
11836 HC2    -2.447734   19.022247  -13.466707 H    1922 MOH     0.0372 ****
11837 HC3    -2.385958   20.800985  -13.286395 H    1922 MOH     0.0372 ****
11838 O1     -1.465084   19.685651  -11.829755 O    1922 MOH    -0.6497 ****
11839 HO1    -0.937963   18.883035  -11.831169 H    1922 MOH     0.4215 ****
11840 HC1    14.600842   11.779106   -6.047743 H    1923 MOH     0.0372 ****
11841 C1     14.347963   12.643776   -5.433974 C    1923 MOH     0.1166 ****
11842 HC2    15.155676   12.827080   -4.726160 H    1923 MOH     0.0372 ****
11843 HC3    13.429976   12.411075   -4.895159 H    1923 MOH     0.0372 ****
11844 O1     14.155705   13.752170   -6.290280 O    1923 MOH    -0.6497 ****
11845 HO1    13.470390   13.481093   -6.905463 H    1923 MOH     0.4215 ****
11846 HC1     6.607428    5.861139  -18.777079 H    1924 MOH     0.0372 ****
11847 C1      7.534652    5.684367  -18.233314 C    1924 MOH     0.1166 ****
11848 HC2     7.468834    4.759685  -17.659850 H    1924 MOH     0.0372 ****
11849 HC3     7.758087    6.520868  -17.570755 H    1924 MOH     0.0372 ****
11850 O1      8.538087    5.582305  -19.163867 O    1924 MOH    -0.6497 ****
11851 HO1     9.348109    5.923193  -18.777079 H    1924 MOH     0.4215 ****
11852 HC1     4.510491    6.005251  -24.049974 H    1925 MOH     0.0372 ****
11853 C1      4.790506    5.096898  -23.516109 C    1925 MOH     0.1166 ****
11854 HC2     5.598797    4.601285  -24.053510 H    1925 MOH     0.0372 ****
11855 HC3     3.959699    4.391037  -23.492774 H    1925 MOH     0.0372 ****
11856 O1      5.228138    5.358177  -22.196648 O    1925 MOH    -0.6497 ****
11857 HO1     4.880573    4.653540  -21.645104 H    1925 MOH     0.4215 ****
11858 HC1     8.200914    7.706830   -2.163605 H    1926 MOH     0.0372 ****
11859 C1      7.309485    8.333491   -2.195425 C    1926 MOH     0.1166 ****
11860 HC2     6.420943    7.702747   -2.235730 H    1926 MOH     0.0372 ****
11861 HC3     7.318723    8.951579   -3.093451 H    1926 MOH     0.0372 ****
11862 O1      7.319878    9.181014   -1.073954 O    1926 MOH    -0.6497 ****
11863 HO1     8.075629    9.761135   -1.190626 H    1926 MOH     0.4215 ****
11864 HC1    15.454166    8.303688  -14.624241 H    1927 MOH     0.0372 ****
11865 C1     14.444380    7.982805  -14.880214 C    1927 MOH     0.1166 ****
11866 HC2    13.746941    8.413507  -14.161086 H    1927 MOH     0.0372 ****
11867 HC3    14.362974    6.896457  -14.845565 H    1927 MOH     0.0372 ****
11868 O1     14.089310    8.442085  -16.152299 O    1927 MOH    -0.6497 ****
11869 HO1    14.688022    8.034653  -16.781624 H    1927 MOH     0.4215 ****
11870 HC1     9.857909    8.968725   -3.577112 H    1928 MOH     0.0372 ****
11871 C1     10.082499   10.034661   -3.526907 C    1928 MOH     0.1166 ****
11872 HC2     9.723387   10.582531   -4.398063 H    1928 MOH     0.0372 ****
11873 HC3    11.168495   10.081202   -3.599032 H    1928 MOH     0.0372 ****
11874 O1      9.721655   10.632745   -2.260479 O    1928 MOH    -0.6497 ****
11875 HO1     9.649486   11.581514   -2.386344 H    1928 MOH     0.4215 ****
11876 HC1     8.944541   -4.482240  -12.209471 H    1929 MOH     0.0372 ****
11877 C1      9.525933   -3.724939  -11.682677 C    1929 MOH     0.1166 ****
11878 HC2    10.579597   -3.969072  -11.819855 H    1929 MOH     0.0372 ****
11879 HC3     9.296148   -3.714325  -10.617774 H    1929 MOH     0.0372 ****
11880 O1      9.397761   -2.464677  -12.234927 O    1929 MOH    -0.6497 ****
11881 HO1    10.196237   -1.988251  -11.993804 H    1929 MOH     0.4215 ****
11882 HC1     4.099995    6.874820   -7.127495 H    1930 MOH     0.0372 ****
11883 C1      4.445251    6.031787   -7.725000 C    1930 MOH     0.1166 ****
11884 HC2     5.185414    5.499839   -7.126081 H    1930 MOH     0.0372 ****
11885 HC3     4.886924    6.417581   -8.643532 H    1930 MOH     0.0372 ****
11886 O1      3.392741    5.114045   -8.058755 O    1930 MOH    -0.6497 ****
11887 HO1     3.671601    4.600877   -8.820309 H    1930 MOH     0.4215 ****
11888 HC1    11.257407   15.412108  -13.350035 H    1931 MOH     0.0372 ****
11889 C1     10.764927   15.848525  -14.219069 C    1931 MOH     0.1166 ****
11890 HC2     9.822691   16.335974  -13.968753 H    1931 MOH     0.0372 ****
11891 HC3    10.512625   15.014066  -14.873850 H    1931 MOH     0.0372 ****
11892 O1     11.602662   16.773616  -14.919105 O    1931 MOH    -0.6497 ****
11893 HO1    11.061685   17.473353  -15.291043 H    1931 MOH     0.4215 ****
11894 HC1     9.165089   -4.804756  -16.872133 H    1932 MOH     0.0372 ****
11895 C1      9.132180   -3.719632  -16.971128 C    1932 MOH     0.1166 ****
11896 HC2     9.577317   -3.250555  -16.093609 H    1932 MOH     0.0372 ****
11897 HC3     8.094682   -3.393850  -17.046082 H    1932 MOH     0.0372 ****
11898 O1      9.818072   -3.342411  -18.136440 O    1932 MOH    -0.6497 ****
11899 HO1     9.919686   -2.389151  -18.096135 H    1932 MOH     0.4215 ****
11900 HC1    17.598445    4.012182  -15.689144 H    1933 MOH     0.0372 ****
11901 C1     16.692582    4.336740  -16.200382 C    1933 MOH     0.1166 ****
11902 HC2    15.806927    3.944005  -15.701165 H    1933 MOH     0.0372 ****
11903 HC3    16.700088    3.988504  -17.233465 H    1933 MOH     0.0372 ****
11904 O1     16.599629    5.728867  -16.186240 O    1933 MOH    -0.6497 ****
11905 HO1    16.869829    6.014232  -15.310134 H    1933 MOH     0.4215 ****
11906 HC1    13.912640   14.775240   -9.600954 H    1934 MOH     0.0372 ****
11907 C1     13.573159   14.029371  -10.320082 C    1934 MOH     0.1166 ****
11908 HC2    13.066822   13.192054   -9.838542 H    1934 MOH     0.0372 ****
11909 HC3    14.459969   13.632553  -10.815057 H    1934 MOH     0.0372 ****
11910 O1     12.731959   14.649908  -11.274676 O    1934 MOH    -0.6497 ****
11911 HO1    13.261389   15.334949  -11.690455 H    1934 MOH     0.4215 ****
11912 HC1     4.619033    7.539039  -18.581918 H    1935 MOH     0.0372 ****
11913 C1      3.988567    7.225505  -17.750360 C    1935 MOH     0.1166 ****
11914 HC2     3.012267    6.912787  -18.120884 H    1935 MOH     0.0372 ****
11915 HC3     3.818248    8.052616  -17.060224 H    1935 MOH     0.0372 ****
11916 O1      4.590743    6.171408  -17.054567 O    1935 MOH    -0.6497 ****
11917 HO1     3.940069    5.817048  -16.445041 H    1935 MOH     0.4215 ****
11918 HC1     7.281195   12.271454  -15.438121 H    1936 MOH     0.0372 ****
11919 C1      7.937643   12.547021  -14.612927 C    1936 MOH     0.1166 ****
11920 HC2     7.390892   12.511095  -13.669647 H    1936 MOH     0.0372 ****
11921 HC3     8.284053   13.569683  -14.763541 H    1936 MOH     0.0372 ****
11922 O1      9.056547   11.675003  -14.547873 O    1936 MOH    -0.6497 ****
11923 HO1     9.661610   12.001602  -13.877536 H    1936 MOH     0.4215 ****
11924 HC1    11.057643   16.986313   -7.670553 H    1937 MOH     0.0372 ****
11925 C1     10.745874   16.567450   -6.713130 C    1937 MOH     0.1166 ****
11926 HC2    10.218753   17.313728   -6.120575 H    1937 MOH     0.0372 ****
11927 HC3    11.638458   16.233912   -6.184922 H    1937 MOH     0.0372 ****
11928 O1      9.931233   15.453341   -6.940112 O    1937 MOH    -0.6497 ****
11929 HO1     9.245341   15.694616   -7.565901 H    1937 MOH     0.4215 ****
11930 HC1     3.737419   22.380498  -15.390038 H    1938 MOH     0.0372 ****
11931 C1      2.829825   22.760169  -15.859557 C    1938 MOH     0.1166 ****
11932 HC2     2.960306   22.740165  -16.942137 H    1938 MOH     0.0372 ****
11933 HC3     2.686642   23.790996  -15.537823 H    1938 MOH     0.0372 ****
11934 O1      1.689558   21.966942  -15.485497 O    1938 MOH    -0.6497 ****
11935 HO1     0.916486   22.471945  -15.747834 H    1938 MOH     0.4215 ****
11936 HC1    -3.380732    2.203643  -15.385088 H    1939 MOH     0.0372 ****
11937 C1     -2.736987    2.987887  -15.781775 C    1939 MOH     0.1166 ****
11938 HC2    -2.702923    3.789279  -15.044263 H    1939 MOH     0.0372 ****
11939 HC3    -3.135936    3.427979  -16.696771 H    1939 MOH     0.0372 ****
11940 O1     -1.425247    2.523301  -16.012292 O    1939 MOH    -0.6497 ****
11941 HO1    -0.982996    3.310404  -16.337561 H    1939 MOH     0.4215 ****
11942 HC1     5.894977   13.910571   -8.878291 H    1940 MOH     0.0372 ****
11943 C1      6.476946   14.153070   -9.767832 C    1940 MOH     0.1166 ****
11944 HC2     6.440573   13.331266  -10.482717 H    1940 MOH     0.0372 ****
11945 HC3     7.504052   14.296365   -9.430542 H    1940 MOH     0.0372 ****
11946 O1      6.011025   15.397411  -10.299576 O    1940 MOH    -0.6497 ****
11947 HO1     6.426717   16.074695   -9.761468 H    1940 MOH     0.4215 ****
11948 HC1     3.389277    9.344313  -11.206794 H    1941 MOH     0.0372 ****
11949 C1      3.552090    9.120185  -10.152498 C    1941 MOH     0.1166 ****
11950 HC2     4.119625    8.193461  -10.060574 H    1941 MOH     0.0372 ****
11951 HC3     2.568285    9.002610   -9.698535 H    1941 MOH     0.0372 ****
11952 O1      4.244910   10.196736   -9.560649 O    1941 MOH    -0.6497 ****
11953 HO1     5.083223   10.287367  -10.018855 H    1941 MOH     0.4215 ****
11954 HC1     3.111572    9.239394  -20.542725 H    1942 MOH     0.0372 ****
11955 C1      2.978204    8.216732  -20.895571 C    1942 MOH     0.1166 ****
11956 HC2     1.979388    8.139164  -21.324078 H    1942 MOH     0.0372 ****
11957 HC3     3.051527    7.499848  -20.078156 H    1942 MOH     0.0372 ****
11958 O1      3.898500    7.939531  -21.907441 O    1942 MOH    -0.6497 ****
11959 HO1     4.014548    6.991578  -21.999365 H    1942 MOH     0.4215 ****
11960 HC1     5.298575   -0.035191  -21.585000 H    1943 MOH     0.0372 ****
11961 C1      4.561876    0.310595  -20.860216 C    1943 MOH     0.1166 ****
11962 HC2     4.291098   -0.497328  -20.179272 H    1943 MOH     0.0372 ****
11963 HC3     3.653126    0.610249  -21.380646 H    1943 MOH     0.0372 ****
11964 O1      5.001817    1.392045  -20.066135 O    1943 MOH    -0.6497 ****
11965 HO1     5.949248    1.323459  -19.930370 H    1943 MOH     0.4215 ****
11966 HC1     6.247161   16.520094  -21.232861 H    1944 MOH     0.0372 ****
11967 C1      5.399611   15.855465  -21.063155 C    1944 MOH     0.1166 ****
11968 HC2     4.534163   16.499273  -20.906885 H    1944 MOH     0.0372 ****
11969 HC3     5.632283   15.253707  -20.184929 H    1944 MOH     0.0372 ****
11970 O1      5.266243   15.153686  -22.278672 O    1944 MOH    -0.6497 ****
11971 HO1     6.112061   14.747888  -22.483733 H    1944 MOH     0.4215 ****
11972 HC1     4.135791   -2.285864  -15.822787 H    1945 MOH     0.0372 ****
11973 C1      5.170980   -1.981719  -15.979058 C    1945 MOH     0.1166 ****
11974 HC2     5.759877   -2.884356  -16.146642 H    1945 MOH     0.0372 ****
11975 HC3     5.543948   -1.424868  -15.120630 H    1945 MOH     0.0372 ****
11976 O1      5.168671   -1.250138  -17.155683 O    1945 MOH    -0.6497 ****
11977 HO1     5.806065   -0.541011  -17.046082 H    1945 MOH     0.4215 ****
11978 HC1    17.198341    2.906238  -11.252049 H    1946 MOH     0.0372 ****
11979 C1     17.582279    3.503097  -12.079364 C    1946 MOH     0.1166 ****
11980 HC2    18.269903    2.885825  -12.657777 H    1946 MOH     0.0372 ****
11981 HC3    18.083419    4.364909  -11.637422 H    1946 MOH     0.0372 ****
11982 O1     16.517068    3.942780  -12.866373 O    1946 MOH    -0.6497 ****
11983 HO1    15.987637    3.186704  -13.128003 H    1946 MOH     0.4215 ****
11984 HC1     7.664556   11.902397   -6.651612 H    1947 MOH     0.0372 ****
11985 C1      7.728064   10.979348   -7.227904 C    1947 MOH     0.1166 ****
11986 HC2     8.759789   10.775224   -7.513575 H    1947 MOH     0.0372 ****
11987 HC3     7.110877   11.091208   -8.118859 H    1947 MOH     0.0372 ****
11988 O1      7.210181    9.926067   -6.462815 O    1947 MOH    -0.6497 ****
11989 HO1     7.460174    9.101406   -6.887079 H    1947 MOH     0.4215 ****
11990 HC1    -4.386476   11.210008  -15.134065 H    1948 MOH     0.0372 ****
11991 C1     -4.552753   12.280435  -15.015271 C    1948 MOH     0.1166 ****
11992 HC2    -4.199415   12.601318  -14.035221 H    1948 MOH     0.0372 ****
11993 HC3    -5.619696   12.493541  -15.087396 H    1948 MOH     0.0372 ****
11994 O1     -3.865706   12.994870  -16.025020 O    1948 MOH    -0.6497 ****
11995 HO1    -3.956350   12.464963  -16.819808 H    1948 MOH     0.4215 ****
11996 HC1     2.276723   17.526017  -17.982998 H    1949 MOH     0.0372 ****
11997 C1      3.147945   16.870779  -18.002090 C    1949 MOH     0.1166 ****
11998 HC2     3.147367   16.299231  -18.929814 H    1949 MOH     0.0372 ****
11999 HC3     3.120232   16.161652  -17.174068 H    1949 MOH     0.0372 ****
12000 O1      4.326317   17.655432  -17.928551 O    1949 MOH    -0.6497 ****
12001 HO1     4.296872   18.166151  -17.116085 H    1949 MOH     0.4215 ****
12002 HC1    17.090376    8.362884  -12.516356 H    1950 MOH     0.0372 ****
12003 C1     17.730658    7.487600  -12.407461 C    1950 MOH     0.1166 ****
12004 HC2    17.580547    7.086700  -11.404784 H    1950 MOH     0.0372 ****
12005 HC3    18.769311    7.800318  -12.513527 H    1950 MOH     0.0372 ****
12006 O1     17.351339    6.545771  -13.410846 O    1950 MOH    -0.6497 ****
12007 HO1    17.280325    5.672528  -13.018401 H    1950 MOH     0.4215 ****
12008 HC1    -1.908489   10.760935  -15.457920 H    1951 MOH     0.0372 ****
12009 C1     -1.641176    9.756236  -15.129115 C    1951 MOH     0.1166 ****
12010 HC2    -0.696631    9.466788  -15.589442 H    1951 MOH     0.0372 ****
12011 HC3    -2.403855    9.042618  -15.438828 H    1951 MOH     0.0372 ****
12012 O1     -1.473744    9.763993  -13.700053 O    1951 MOH    -0.6497 ****
12013 HO1    -2.302242    9.951787  -13.253161 H    1951 MOH     0.4215 ****
12014 HC1    15.226112   10.576407   -8.095524 H    1952 MOH     0.0372 ****
12015 C1     16.084632   10.938115   -8.661209 C    1952 MOH     0.1166 ****
12016 HC2    15.736490   11.457407   -9.553578 H    1952 MOH     0.0372 ****
12017 HC3    16.713944   10.097532   -8.954659 H    1952 MOH     0.0372 ****
12018 O1     16.834033   11.827688   -7.865714 O    1952 MOH    -0.6497 ****
12019 HO1    17.001464   11.409233   -7.017893 H    1952 MOH     0.4215 ****
12020 HC1    16.025165   11.897498  -18.027546 H    1953 MOH     0.0372 ****
12021 C1     15.578296   12.311462  -18.931228 C    1953 MOH     0.1166 ****
12022 HC2    14.550613   12.630304  -18.759401 H    1953 MOH     0.0372 ****
12023 HC3    15.608896   11.539056  -19.700561 H    1953 MOH     0.0372 ****
12024 O1     16.388896   13.375765  -19.319430 O    1953 MOH    -0.6497 ****
12025 HO1    16.570761   13.922001  -18.551512 H    1953 MOH     0.4215 ****
12026 HC1     9.251115    9.645192  -23.433377 H    1954 MOH     0.0372 ****
12027 C1      8.326777   10.160402  -23.695007 C    1954 MOH     0.1166 ****
12028 HC2     7.613749   10.113453  -22.871227 H    1954 MOH     0.0372 ****
12029 HC3     7.890877    9.714186  -24.588083 H    1954 MOH     0.0372 ****
12030 O1      8.564645   11.509662  -23.974314 O    1954 MOH    -0.6497 ****
12031 HO1     9.069249   11.539873  -24.790315 H    1954 MOH     0.4215 ****
12032 HC1     0.973066   16.838527  -13.381147 H    1955 MOH     0.0372 ****
12033 C1      0.602407   16.441710  -12.436453 C    1955 MOH     0.1166 ****
12034 HC2     1.456886   16.318827  -11.771065 H    1955 MOH     0.0372 ****
12035 HC3     0.130712   15.465997  -12.552418 H    1955 MOH     0.0372 ****
12036 O1     -0.252648   17.377007  -11.874303 O    1955 MOH    -0.6497 ****
12037 HO1    -0.067896   17.378640  -10.932437 H    1955 MOH     0.4215 ****
12038 HC1    -0.489362   -0.574487  -22.893855 H    1956 MOH     0.0372 ****
12039 C1      0.024480   -0.265443  -21.983808 C    1956 MOH     0.1166 ****
12040 HC2     1.107589   -0.291571  -22.099774 H    1956 MOH     0.0372 ****
12041 HC3    -0.278629   -0.904760  -21.153665 H    1956 MOH     0.0372 ****
12042 O1     -0.414884    0.991962  -21.700966 O    1956 MOH    -0.6497 ****
12043 HO1    -0.746860    1.354078  -22.526159 H    1956 MOH     0.4215 ****
12044 HC1     0.261193   12.163676   -7.642976 H    1957 MOH     0.0372 ****
12045 C1      0.194798   11.903214   -6.586558 C    1957 MOH     0.1166 ****
12046 HC2     0.302763   10.825030   -6.462815 H    1957 MOH     0.0372 ****
12047 HC3    -0.789007   12.217973   -6.237955 H    1957 MOH     0.0372 ****
12048 O1      1.178603   12.622139   -5.863188 O    1957 MOH    -0.6497 ****
12049 HO1     2.001327   12.513137   -6.346142 H    1957 MOH     0.4215 ****
12050 HC1     7.807739   14.724618   -2.794345 H    1958 MOH     0.0372 ****
12051 C1      8.245370   13.821164   -3.219316 C    1958 MOH     0.1166 ****
12052 HC2     8.489012   14.016307   -4.263005 H    1958 MOH     0.0372 ****
12053 HC3     7.539848   12.994870   -3.125978 H    1958 MOH     0.0372 ****
12054 O1      9.381595   13.523551   -2.471904 O    1958 MOH    -0.6497 ****
12055 HO1    10.009175   14.249417   -2.519987 H    1958 MOH     0.4215 ****
12056 HC1     4.587856    7.526792   -3.427205 H    1959 MOH     0.0372 ****
12057 C1      4.177360    6.570266   -3.104057 C    1959 MOH     0.1166 ****
12058 HC2     4.956206    5.807659   -3.082844 H    1959 MOH     0.0372 ****
12059 HC3     3.392164    6.291433   -3.806214 H    1959 MOH     0.0372 ****
12060 O1      3.581535    6.714786   -1.848236 O    1959 MOH    -0.6497 ****
12061 HO1     4.202186    7.163859   -1.269822 H    1959 MOH     0.4215 ****
12062 HC1     0.970757   18.252291  -16.456355 H    1960 MOH     0.0372 ****
12063 C1      1.537138   18.557253  -15.576007 C    1960 MOH     0.1166 ****
12064 HC2     1.922807   17.663597  -15.084568 H    1960 MOH     0.0372 ****
12065 HC3     0.883000   19.081035  -14.879507 H    1960 MOH     0.0372 ****
12066 O1      2.631794   19.371708  -15.981179 O    1960 MOH    -0.6497 ****
12067 HO1     2.280765   20.246992  -16.157956 H    1960 MOH     0.4215 ****
12068 HC1    -7.112724    8.847475  -17.059517 H    1961 MOH     0.0372 ****
12069 C1     -6.553849    9.479852  -16.370088 C    1961 MOH     0.1166 ****
12070 HC2    -6.508816   10.480468  -16.800716 H    1961 MOH     0.0372 ****
12071 HC3    -5.540599    9.085484  -16.289478 H    1961 MOH     0.0372 ****
12072 O1     -7.218957    9.492099  -15.081739 O    1961 MOH    -0.6497 ****
12073 HO1    -6.751880    8.874011  -14.516054 H    1961 MOH     0.4215 ****
12074 HC1     1.362200    2.634344  -19.160331 H    1962 MOH     0.0372 ****
12075 C1      0.480009    3.217731  -18.899409 C    1962 MOH     0.1166 ****
12076 HC2     0.784273    4.216307  -18.588282 H    1962 MOH     0.0372 ****
12077 HC3    -0.055195    2.727833  -18.086236 H    1962 MOH     0.0372 ****
12078 O1     -0.340983    3.272845  -20.066842 O    1962 MOH    -0.6497 ****
12079 HO1    -0.431627    2.384088  -20.419688 H    1962 MOH     0.4215 ****
12080 HC1     8.898931   -6.358141  -13.709245 H    1963 MOH     0.0372 ****
12081 C1      9.736666   -6.129930  -14.368975 C    1963 MOH     0.1166 ****
12082 HC2    10.094046   -5.128497  -14.133509 H    1963 MOH     0.0372 ****
12083 HC3     9.386214   -6.174837  -15.399937 H    1963 MOH     0.0372 ****
12084 O1     10.817466   -7.071759  -14.164621 O    1963 MOH    -0.6497 ****
12085 HO1    11.650582   -6.683515  -14.442514 H    1963 MOH     0.4215 ****
12086 HC1     3.092519    4.497181  -14.093911 H    1964 MOH     0.0372 ****
12087 C1      2.780750    5.540664  -14.129266 C    1964 MOH     0.1166 ****
12088 HC2     3.586731    6.197944  -13.801169 H    1964 MOH     0.0372 ****
12089 HC3     1.937819    5.663955  -13.450444 H    1964 MOH     0.0372 ****
12090 O1      2.327530    5.886859  -15.423272 O    1964 MOH    -0.6497 ****
12091 HO1     2.116220    6.822564  -15.393573 H    1964 MOH     0.4215 ****
12092 HC1     9.788627   12.510687   -6.596458 H    1965 MOH     0.0372 ****
12093 C1     10.714120   12.810341   -6.102897 C    1965 MOH     0.1166 ****
12094 HC2    11.158102   11.956286   -5.590952 H    1965 MOH     0.0372 ****
12095 HC3    10.468169   13.562335   -5.353364 H    1965 MOH     0.0372 ****
12096 O1     11.596311   13.309629   -7.128909 O    1965 MOH    -0.6497 ****
12097 HO1    11.405786   14.247784   -7.203862 H    1965 MOH     0.4215 ****
12098 HC1    -1.182182    3.668029  -13.277203 H    1966 MOH     0.0372 ****
12099 C1     -0.410842    3.374907  -12.564439 C    1966 MOH     0.1166 ****
12100 HC2     0.486937    3.118527  -13.127296 H    1966 MOH     0.0372 ****
12101 HC3    -0.741087    2.486559  -12.025624 H    1966 MOH     0.0372 ****
12102 O1     -0.150457    4.452274  -11.655807 O    1966 MOH    -0.6497 ****
12103 HO1    -0.816720    4.427371  -10.964963 H    1966 MOH     0.4215 ****
12104 HC1     8.205533   16.379656  -11.248513 H    1967 MOH     0.0372 ****
12105 C1      9.151233   16.722585  -10.828492 C    1967 MOH     0.1166 ****
12106 HC2     9.037495   17.697073  -10.352609 H    1967 MOH     0.0372 ****
12107 HC3     9.881004   16.836078  -11.630351 H    1967 MOH     0.0372 ****
12108 O1      9.592906   15.800352   -9.856220 O    1967 MOH    -0.6497 ****
12109 HO1    10.424290   15.412108  -10.138356 H    1967 MOH     0.4215 ****
12110 HC1     8.123549    8.313895  -16.177755 H    1968 MOH     0.0372 ****
12111 C1      8.905282    8.987096  -16.529187 C    1968 MOH     0.1166 ****
12112 HC2     9.464734    8.552312  -17.357209 H    1968 MOH     0.0372 ****
12113 HC3     9.590596    9.192037  -15.707529 H    1968 MOH     0.0372 ****
12114 O1      8.331395   10.186530  -16.974664 O    1968 MOH    -0.6497 ****
12115 HO1     8.526540   10.829929  -16.288770 H    1968 MOH     0.4215 ****
12116 HC1     7.521835   20.513823  -11.814906 H    1969 MOH     0.0372 ****
12117 C1      6.721050   20.119864  -11.189116 C    1969 MOH     0.1166 ****
12118 HC2     6.155247   19.389508  -11.768237 H    1969 MOH     0.0372 ****
12119 HC3     6.048437   20.896760  -10.827785 H    1969 MOH     0.0372 ****
12120 O1      7.218149   19.378893  -10.144720 O    1969 MOH    -0.6497 ****
12121 HO1     7.762590   19.974936   -9.625703 H    1969 MOH     0.4215 ****
12122 HC1    19.631179   21.752857   -7.308514 H    1970 MOH     0.0372 ****
12123 C1     19.692379   22.532611   -6.550496 C    1970 MOH     0.1166 ****
12124 HC2    20.052645   22.086804   -5.622772 H    1970 MOH     0.0372 ****
12125 HC3    18.699336   22.958006   -6.404832 H    1970 MOH     0.0372 ****
12126 O1     20.563600   23.555273   -6.978295 O    1970 MOH    -0.6497 ****
12127 HO1    21.450410   23.195198   -7.044763 H    1970 MOH     0.4215 ****
12128 HC1    19.252438   15.648320  -20.721623 H    1971 MOH     0.0372 ****
12129 C1     19.065376   14.662401  -20.296652 C    1971 MOH     0.1166 ****
12130 HC2    18.673355   14.757114  -19.284075 H    1971 MOH     0.0372 ****
12131 HC3    20.022623   14.145966  -20.228062 H    1971 MOH     0.0372 ****
12132 O1     18.224177   13.858560  -21.145887 O    1971 MOH    -0.6497 ****
12133 HO1    17.508263   13.512365  -20.608486 H    1971 MOH     0.4215 ****
12134 HC1    21.882846   16.120255  -14.084718 H    1972 MOH     0.0372 ****
12135 C1     21.034141   16.555040  -13.556510 C    1972 MOH     0.1166 ****
12136 HC2    20.897886   17.582192  -13.894507 H    1972 MOH     0.0372 ****
12137 HC3    21.198685   16.542792  -12.478879 H    1972 MOH     0.0372 ****
12138 O1     19.868470   15.856935  -13.890264 O    1972 MOH    -0.6497 ****
12139 HO1    19.895606   15.056360  -13.360641 H    1972 MOH     0.4215 ****
12140 HC1    14.073028   29.603472  -11.237200 H    1973 MOH     0.0372 ****
12141 C1     14.676937   30.155015  -10.516658 C    1973 MOH     0.1166 ****
12142 HC2    15.488691   29.519781  -10.163104 H    1973 MOH     0.0372 ****
12143 HC3    14.028572   30.440789   -9.687929 H    1973 MOH     0.0372 ****
12144 O1     15.181541   31.278922  -11.172146 O    1973 MOH    -0.6497 ****
12145 HO1    15.994450   31.540610  -10.733032 H    1973 MOH     0.4215 ****
12146 HC1    12.134863   24.281955   -6.852430 H    1974 MOH     0.0372 ****
12147 C1     11.114686   23.989241   -6.604236 C    1974 MOH     0.1166 ****
12148 HC2    10.953605   24.046804   -5.528727 H    1974 MOH     0.0372 ****
12149 HC3    10.906262   22.966987   -6.921020 H    1974 MOH     0.0372 ****
12150 O1     10.228453   24.881672   -7.205277 O    1974 MOH    -0.6497 ****
12151 HO1    10.679941   25.258077   -7.964709 H    1974 MOH     0.4215 ****
12152 HC1     6.733752   27.068658  -10.648180 H    1975 MOH     0.0372 ****
12153 C1      7.774137   27.096011  -10.974156 C    1975 MOH     0.1166 ****
12154 HC2     8.358415   26.456285  -10.311597 H    1975 MOH     0.0372 ****
12155 HC3     8.115351   28.129695  -10.920416 H    1975 MOH     0.0372 ****
12156 O1      7.841110   26.613869  -12.297153 O    1975 MOH    -0.6497 ****
12157 HO1     7.246439   25.861059  -12.340993 H    1975 MOH     0.4215 ****
12158 HC1     9.614152   22.386458  -14.808089 H    1976 MOH     0.0372 ****
12159 C1     10.528675   22.692644  -15.315792 C    1976 MOH     0.1166 ****
12160 HC2    11.123923   23.347066  -14.678688 H    1976 MOH     0.0372 ****
12161 HC3    10.253279   23.238881  -16.218060 H    1976 MOH     0.0372 ****
12162 O1     11.230733   21.553223  -15.713893 O    1976 MOH    -0.6497 ****
12163 HO1    12.165463   21.752040  -15.624090 H    1976 MOH     0.4215 ****
12164 HC1    22.880507   18.205996  -18.241799 H    1977 MOH     0.0372 ****
12165 C1     22.927850   18.929412  -17.427212 C    1977 MOH     0.1166 ****
12166 HC2    22.134570   19.656910  -17.598332 H    1977 MOH     0.0372 ****
12167 HC3    23.888560   19.442988  -17.473881 H    1977 MOH     0.0372 ****
12168 O1     22.742520   18.287645  -16.133207 O    1977 MOH    -0.6497 ****
12169 HO1    22.550840   18.963296  -15.477719 H    1977 MOH     0.4215 ****
12170 HC1     6.559969   22.048837  -19.663791 H    1978 MOH     0.0372 ****
12171 C1      6.602693   22.290520  -18.601717 C    1978 MOH     0.1166 ****
12172 HC2     7.639614   22.228466  -18.270791 H    1978 MOH     0.0372 ****
12173 HC3     6.005136   21.588741  -18.019768 H    1978 MOH     0.0372 ****
12174 O1      6.169103   23.584259  -18.332309 O    1978 MOH    -0.6497 ****
12175 HO1     5.399495   23.775727  -18.873246 H    1978 MOH     0.4215 ****
12176 HC1     3.956697   25.986392  -11.948549 H    1979 MOH     0.0372 ****
12177 C1      3.521952   25.100901  -11.485394 C    1979 MOH     0.1166 ****
12178 HC2     3.109724   24.426067  -12.235634 H    1979 MOH     0.0372 ****
12179 HC3     2.699805   25.387083  -10.828492 H    1979 MOH     0.0372 ****
12180 O1      4.427237   24.398306  -10.689899 O    1979 MOH    -0.6497 ****
12181 HO1     3.900694   23.680605  -10.329275 H    1979 MOH     0.4215 ****
12182 HC1    17.620268   20.890637   -5.229620 H    1980 MOH     0.0372 ****
12183 C1     17.919913   19.843480   -5.244470 C    1980 MOH     0.1166 ****
12184 HC2    18.553844   19.654869   -6.111382 H    1980 MOH     0.0372 ****
12185 HC3    17.052156   19.189466   -5.323666 H    1980 MOH     0.0372 ****
12186 O1     18.624858   19.532394   -4.050873 O    1980 MOH    -0.6497 ****
12187 HO1    19.059025   18.684055   -4.169667 H    1980 MOH     0.4215 ****
12188 HC1    24.426073   15.542992  -17.637223 H    1981 MOH     0.0372 ****
12189 C1     23.745955   14.974302  -17.002948 C    1981 MOH     0.1166 ****
12190 HC2    24.100448   15.011453  -15.972694 H    1981 MOH     0.0372 ****
12191 HC3    23.691107   13.937760  -17.334581 H    1981 MOH     0.0372 ****
12192 O1     22.513312   15.597289  -17.084973 O    1981 MOH    -0.6497 ****
12193 HO1    22.615503   16.490128  -16.749097 H    1981 MOH     0.4215 ****
12194 HC1    18.294036   22.006379  -12.653534 H    1982 MOH     0.0372 ****
12195 C1     18.153740   21.852061  -13.722680 C    1982 MOH     0.1166 ****
12196 HC2    17.957441   22.806546  -14.211998 H    1982 MOH     0.0372 ****
12197 HC3    17.319469   21.173144  -13.898749 H    1982 MOH     0.0372 ****
12198 O1     19.329225   21.297660  -14.274223 O    1982 MOH    -0.6497 ****
12199 HO1    19.975858   21.196823  -13.572066 H    1982 MOH     0.4215 ****
12200 HC1    24.755740   15.917356  -12.408168 H    1983 MOH     0.0372 ****
12201 C1     24.589464   16.004313  -11.334073 C    1983 MOH     0.1166 ****
12202 HC2    24.661632   17.060451  -11.074565 H    1983 MOH     0.0372 ****
12203 HC3    25.376392   15.450320  -10.821421 H    1983 MOH     0.0372 ****
12204 O1     23.263867   15.485429  -11.100021 O    1983 MOH    -0.6497 ****
12205 HO1    22.952676   15.834073  -10.261392 H    1983 MOH     0.4215 ****
12206 HC1     8.129207   24.487304   -9.209217 H    1984 MOH     0.0372 ****
12207 C1      7.737764   23.718164   -9.873898 C    1984 MOH     0.1166 ****
12208 HC2     8.237172   23.752049  -10.841927 H    1984 MOH     0.0372 ****
12209 HC3     6.666202   23.880647   -9.998349 H    1984 MOH     0.0372 ****
12210 O1      7.878637   22.451370   -9.289120 O    1984 MOH    -0.6497 ****
12211 HO1     7.432346   22.450961   -8.439885 H    1984 MOH     0.4215 ****
12212 HC1    24.349286   22.055369  -13.589744 H    1985 MOH     0.0372 ****
12213 C1     24.332543   21.048220  -14.007644 C    1985 MOH     0.1166 ****
12214 HC2    24.834260   20.389716  -13.299830 H    1985 MOH     0.0372 ****
12215 HC3    24.883912   21.019643  -14.948096 H    1985 MOH     0.0372 ****
12216 O1     22.989626   20.612619  -14.156843 O    1985 MOH    -0.6497 ****
12217 HO1    22.497724   20.873490  -13.374076 H    1985 MOH     0.4215 ****
12218 HC1    18.483984   25.846362  -14.458071 H    1986 MOH     0.0372 ****
12219 C1     17.420505   26.047221  -14.589593 C    1986 MOH     0.1166 ****
12220 HC2    16.838536   25.126212  -14.562723 H    1986 MOH     0.0372 ****
12221 HC3    17.255383   26.517931  -15.559036 H    1986 MOH     0.0372 ****
12222 O1     16.970172   26.937610  -13.610250 O    1986 MOH    -0.6497 ****
12223 HO1    17.080446   27.832082  -13.940469 H    1986 MOH     0.4215 ****
12224 HC1    17.964369   17.518097  -12.051079 H    1987 MOH     0.0372 ****
12225 C1     17.778462   18.103934  -12.951226 C    1987 MOH     0.1166 ****
12226 HC2    17.796360   17.480130  -13.845009 H    1987 MOH     0.0372 ****
12227 HC3    18.526131   18.889403  -13.060121 H    1987 MOH     0.0372 ****
12228 O1     16.536005   18.692219  -12.821826 O    1987 MOH    -0.6497 ****
12229 HO1    16.237515   18.802855  -13.727630 H    1987 MOH     0.4215 ****
12230 HC1    19.149092   21.093128  -10.631916 H    1988 MOH     0.0372 ****
12231 C1     19.903111   20.339501  -10.859604 C    1988 MOH     0.1166 ****
12232 HC2    19.416982   19.449928  -11.259120 H    1988 MOH     0.0372 ****
12233 HC3    20.392127   20.050053   -9.929759 H    1988 MOH     0.0372 ****
12234 O1     20.837264   20.881655  -11.804299 O    1988 MOH    -0.6497 ****
12235 HO1    21.053770   21.779393  -11.544791 H    1988 MOH     0.4215 ****
12236 HC1    15.085701   14.463584  -13.366298 H    1989 MOH     0.0372 ****
12237 C1     14.678669   15.464200  -13.511255 C    1989 MOH     0.1166 ****
12238 HC2    13.633088   15.418476  -13.816725 H    1989 MOH     0.0372 ****
12239 HC3    15.235235   15.921847  -14.327963 H    1989 MOH     0.0372 ****
12240 O1     14.833399   16.288045  -12.354428 O    1989 MOH    -0.6497 ****
12241 HO1    15.116300   17.168229  -12.614644 H    1989 MOH     0.4215 ****
12242 HC1    14.491607   18.868991  -11.143861 H    1990 MOH     0.0372 ****
12243 C1     14.579942   19.854911  -10.687778 C    1990 MOH     0.1166 ****
12244 HC2    13.978920   19.886754   -9.779852 H    1990 MOH     0.0372 ****
12245 HC3    14.227758   20.590166  -11.411148 H    1990 MOH     0.0372 ****
12246 O1     15.919972   20.058626  -10.380186 O    1990 MOH    -0.6497 ****
12247 HO1    16.404946   19.591999  -11.063958 H    1990 MOH     0.4215 ****
12248 HC1    16.455176   14.031657  -10.329981 H    1991 MOH     0.0372 ****
12249 C1     17.531356   14.039822  -10.499687 C    1991 MOH     0.1166 ****
12250 HC2    17.951667   14.900001   -9.979964 H    1991 MOH     0.0372 ****
12251 HC3    17.735161   14.100243  -11.568833 H    1991 MOH     0.0372 ****
12252 O1     18.124873   12.895094   -9.999055 O    1991 MOH    -0.6497 ****
12253 HO1    17.662992   12.633815   -9.200025 H    1991 MOH     0.4215 ****
12254 HC1    12.270541   25.685104  -13.460343 H    1992 MOH     0.0372 ****
12255 C1     13.302266   25.401372  -13.666111 C    1992 MOH     0.1166 ****
12256 HC2    13.573043   24.575486  -13.009209 H    1992 MOH     0.0372 ****
12257 HC3    13.950630   26.252161  -13.455394 H    1992 MOH     0.0372 ****
12258 O1     13.440253   25.082122  -15.027999 O    1992 MOH    -0.6497 ****
12259 HO1    13.143494   25.874940  -15.480547 H    1992 MOH     0.4215 ****
12260 HC1    23.896066   21.122930   -5.817226 H    1993 MOH     0.0372 ****
12261 C1     23.971121   22.164779   -6.126939 C    1993 MOH     0.1166 ****
12262 HC2    25.009774   22.389316   -6.370183 H    1993 MOH     0.0372 ****
12263 HC3    23.609123   22.766129   -5.291846 H    1993 MOH     0.0372 ****
12264 O1     23.083157   22.322363   -7.203155 O    1993 MOH    -0.6497 ****
12265 HO1    23.450351   21.801847   -7.920869 H    1993 MOH     0.4215 ****
12266 HC1    13.620963   17.210278   -5.268511 H    1994 MOH     0.0372 ****
12267 C1     14.613428   17.231099   -5.718938 C    1994 MOH     0.1166 ****
12268 HC2    15.136508   18.142309   -5.429024 H    1994 MOH     0.0372 ****
12269 HC3    14.553384   17.175577   -6.805054 H    1994 MOH     0.0372 ****
12270 O1     15.348395   16.166387   -5.270632 O    1994 MOH    -0.6497 ****
12271 HO1    14.901526   15.370303   -5.566203 H    1994 MOH     0.4215 ****
12272 HC1    11.560977   29.439764  -12.263212 H    1995 MOH     0.0372 ****
12273 C1     11.321377   28.806979  -11.409027 C    1995 MOH     0.1166 ****
12274 HC2    10.275796   28.931495  -11.128305 H    1995 MOH     0.0372 ****
12275 HC3    11.953576   29.114390  -10.575348 H    1995 MOH     0.0372 ****
12276 O1     11.623331   27.456902  -11.725103 O    1995 MOH    -0.6497 ****
12277 HO1    11.160874   27.183784  -12.520598 H    1995 MOH     0.4215 ****
12278 HC1    20.796272   17.813261   -9.742376 H    1996 MOH     0.0372 ****
12279 C1     21.047420   17.292744   -8.818187 C    1996 MOH     0.1166 ****
12280 HC2    20.380580   16.439097   -8.697272 H    1996 MOH     0.0372 ****
12281 HC3    20.924444   17.962680   -7.967538 H    1996 MOH     0.0372 ****
12282 O1     22.387450   16.862042   -8.915061 O    1996 MOH    -0.6497 ****
12283 HO1    22.577398   16.306416   -8.156335 H    1996 MOH     0.4215 ****
12284 HC1    12.322502   24.041497  -10.521608 H    1997 MOH     0.0372 ****
12285 C1     11.312717   24.440764  -10.429684 C    1997 MOH     0.1166 ****
12286 HC2    10.700148   23.699385   -9.916324 H    1997 MOH     0.0372 ****
12287 HC3    10.911458   24.632640  -11.425290 H    1997 MOH     0.0372 ****
12288 O1     11.380844   25.629583   -9.667423 O    1997 MOH    -0.6497 ****
12289 HO1    11.715130   26.322788  -10.241593 H    1997 MOH     0.4215 ****
12290 HC1    24.780567   17.385417  -14.798189 H    1998 MOH     0.0372 ****
12291 C1     25.651788   17.888787  -15.217503 C    1998 MOH     0.1166 ****
12292 HC2    25.353875   18.837964  -15.660859 H    1998 MOH     0.0372 ****
12293 HC3    26.090574   17.277231  -16.006635 H    1998 MOH     0.0372 ****
12294 O1     26.620582   18.163946  -14.231797 O    1998 MOH    -0.6497 ****
12295 HO1    27.050708   17.325812  -14.048656 H    1998 MOH     0.4215 ****
12296 HC1     8.066276   31.277698  -12.097749 H    1999 MOH     0.0372 ****
12297 C1      8.928838   31.740651  -12.577167 C    1999 MOH     0.1166 ****
12298 HC2     9.715766   31.855369  -11.831169 H    1999 MOH     0.0372 ****
12299 HC3     8.611872   32.732695  -12.899608 H    1999 MOH     0.0372 ****
12300 O1      9.311621   30.953140  -13.736115 O    1999 MOH    -0.6497 ****
12301 HO1     8.617646   30.999272  -14.397260 H    1999 MOH     0.4215 ****
12302 HC1    14.752570   26.715115   -5.837025 H    2000 MOH     0.0372 ****
12303 C1     15.360519   27.585908   -6.085220 C    2000 MOH     0.1166 ****
12304 HC2    16.410142   27.316465   -6.199771 H    2000 MOH     0.0372 ****
12305 HC3    15.303939   28.308100   -5.269925 H    2000 MOH     0.0372 ****
12306 O1     14.965612   28.148066   -7.295079 O    2000 MOH    -0.6497 ****
12307 HO1    15.247359   27.549574   -7.990872 H    2000 MOH     0.4215 ****
12308 HC1    13.812066   18.971053  -15.635404 H    2001 MOH     0.0372 ****
12309 C1     14.668854   18.713040  -16.259072 C    2001 MOH     0.1166 ****
12310 HC2    14.854761   19.506267  -16.982442 H    2001 MOH     0.0372 ****
12311 HC3    14.422903   17.809178  -16.816272 H    2001 MOH     0.0372 ****
12312 O1     15.832215   18.522388  -15.457920 O    2001 MOH    -0.6497 ****
12313 HO1    16.528499   18.174561  -16.019363 H    2001 MOH     0.4215 ****
12314 HC1    19.866738   18.630982  -16.452112 H    2002 MOH     0.0372 ****
12315 C1     19.368485   17.855310  -17.031940 C    2002 MOH     0.1166 ****
12316 HC2    20.095369   17.109849  -17.354380 H    2002 MOH     0.0372 ****
12317 HC3    18.906028   18.329287  -17.898145 H    2002 MOH     0.0372 ****
12318 O1     18.393340   17.224567  -16.235030 O    2002 MOH    -0.6497 ****
12319 HO1    18.865036   16.855510  -15.485497 H    2002 MOH     0.4215 ****
12320 HC1    23.207287   24.682855   -9.265079 H    2003 MOH     0.0372 ****
12321 C1     22.584903   25.577327   -9.274271 C    2003 MOH     0.1166 ****
12322 HC2    23.028886   26.364430   -8.664745 H    2003 MOH     0.0372 ****
12323 HC3    21.613223   25.299310   -8.864856 H    2003 MOH     0.0372 ****
12324 O1     22.405347   26.030074  -10.595854 O    2003 MOH    -0.6497 ****
12325 HO1    23.262713   26.305642  -10.928901 H    2003 MOH     0.4215 ****
12326 HC1    18.836168   24.862484  -11.424583 H    2004 MOH     0.0372 ****
12327 C1     19.289965   25.741851  -10.967792 C    2004 MOH     0.1166 ****
12328 HC2    20.127123   26.058652  -11.590046 H    2004 MOH     0.0372 ****
12329 HC3    19.593652   25.492819   -9.950972 H    2004 MOH     0.0372 ****
12330 O1     18.339647   26.739610  -11.003147 O    2004 MOH    -0.6497 ****
12331 HO1    18.011712   26.795132  -11.904001 H    2004 MOH     0.4215 ****
12332 HC1    22.458464   20.922072   -9.581862 H    2005 MOH     0.0372 ****
12333 C1     23.281188   20.231316   -9.767124 C    2005 MOH     0.1166 ****
12334 HC2    23.556584   20.352565  -10.814350 H    2005 MOH     0.0372 ****
12335 HC3    22.972883   19.191507   -9.660351 H    2005 MOH     0.0372 ****
12336 O1     24.371225   20.541992   -8.882534 O    2005 MOH    -0.6497 ****
12337 HO1    24.982062   19.801430   -8.869806 H    2005 MOH     0.4215 ****
12338 HC1    27.292617   21.879822  -10.646765 H    2006 MOH     0.0372 ****
12339 C1     26.461233   22.563230  -10.816471 C    2006 MOH     0.1166 ****
12340 HC2    25.539205   22.103134  -10.459382 H    2006 MOH     0.0372 ****
12341 HC3    26.390796   22.751432  -11.887738 H    2006 MOH     0.0372 ****
12342 O1     26.789168   23.783892  -10.164518 O    2006 MOH    -0.6497 ****
12343 HO1    27.402314   23.586708   -9.452462 H    2006 MOH     0.4215 ****
12344 HC1    19.799188   24.109266   -2.163605 H    2007 MOH     0.0372 ****
12345 C1     18.907759   24.735927   -2.195425 C    2007 MOH     0.1166 ****
12346 HC2    18.019217   24.105184   -2.235730 H    2007 MOH     0.0372 ****
12347 HC3    18.916997   25.354015   -3.093451 H    2007 MOH     0.0372 ****
12348 O1     18.918152   25.583451   -1.073954 O    2007 MOH    -0.6497 ****
12349 HO1    19.673903   26.163571   -1.190626 H    2007 MOH     0.4215 ****
12350 HC1    21.456184   25.371162   -3.577112 H    2008 MOH     0.0372 ****
12351 C1     21.680773   26.437098   -3.526907 C    2008 MOH     0.1166 ****
12352 HC2    21.321661   26.984967   -4.398063 H    2008 MOH     0.0372 ****
12353 HC3    22.766769   26.483638   -3.599032 H    2008 MOH     0.0372 ****
12354 O1     21.319929   27.035182   -2.260479 O    2008 MOH    -0.6497 ****
12355 HO1    21.247760   27.983951   -2.386344 H    2008 MOH     0.4215 ****
12356 HC1    20.542816   11.920197  -12.209471 H    2009 MOH     0.0372 ****
12357 C1     21.124207   12.677497  -11.682677 C    2009 MOH     0.1166 ****
12358 HC2    22.177871   12.433365  -11.819855 H    2009 MOH     0.0372 ****
12359 HC3    20.894422   12.688112  -10.617774 H    2009 MOH     0.0372 ****
12360 O1     20.996035   13.937760  -12.234927 O    2009 MOH    -0.6497 ****
12361 HO1    21.794511   14.414186  -11.993804 H    2009 MOH     0.4215 ****
12362 HC1    15.698269   23.277256   -7.127495 H    2010 MOH     0.0372 ****
12363 C1     16.043525   22.434223   -7.725000 C    2010 MOH     0.1166 ****
12364 HC2    16.783688   21.902276   -7.126081 H    2010 MOH     0.0372 ****
12365 HC3    16.485198   22.820018   -8.643532 H    2010 MOH     0.0372 ****
12366 O1     14.991015   21.516481   -8.058755 O    2010 MOH    -0.6497 ****
12367 HO1    15.269875   21.003313   -8.820309 H    2010 MOH     0.4215 ****
12368 HC1    20.763363   11.597681  -16.872133 H    2011 MOH     0.0372 ****
12369 C1     20.730454   12.682805  -16.971128 C    2011 MOH     0.1166 ****
12370 HC2    21.175591   13.151882  -16.093609 H    2011 MOH     0.0372 ****
12371 HC3    19.692956   13.008587  -17.046082 H    2011 MOH     0.0372 ****
12372 O1     21.416347   13.060026  -18.136440 O    2011 MOH    -0.6497 ****
12373 HO1    21.517960   14.013286  -18.096135 H    2011 MOH     0.4215 ****
12374 HC1    21.731002   24.978427  -13.704295 H    2012 MOH     0.0372 ****
12375 C1     22.394378   24.156623  -13.434887 C    2012 MOH     0.1166 ****
12376 HC2    23.410514   24.542826  -13.357106 H    2012 MOH     0.0372 ****
12377 HC3    22.380521   23.374011  -14.193613 H    2012 MOH     0.0372 ****
12378 O1     22.016213   23.729595  -12.147953 O    2012 MOH    -0.6497 ****
12379 HO1    22.069907   24.498735  -11.576611 H    2012 MOH     0.4215 ****
12380 HC1     8.217542   18.606079  -15.385088 H    2013 MOH     0.0372 ****
12381 C1      8.861288   19.390324  -15.781775 C    2013 MOH     0.1166 ****
12382 HC2     8.895351   20.191715  -15.044263 H    2013 MOH     0.0372 ****
12383 HC3     8.462339   19.830416  -16.696771 H    2013 MOH     0.0372 ****
12384 O1     10.173027   18.925737  -16.012292 O    2013 MOH    -0.6497 ****
12385 HO1    10.615278   19.712840  -16.337561 H    2013 MOH     0.4215 ****
12386 HC1    14.987551   25.746750  -11.206794 H    2014 MOH     0.0372 ****
12387 C1     15.150364   25.522622  -10.152498 C    2014 MOH     0.1166 ****
12388 HC2    15.717899   24.595898  -10.060574 H    2014 MOH     0.0372 ****
12389 HC3    14.166559   25.405046   -9.698535 H    2014 MOH     0.0372 ****
12390 O1     15.843184   26.599172   -9.560649 O    2014 MOH    -0.6497 ****
12391 HO1    16.681497   26.689803  -10.018855 H    2014 MOH     0.4215 ****
12392 HC1    12.922947   19.680589   -6.447258 H    2015 MOH     0.0372 ****
12393 C1     12.529771   20.115373   -5.528727 C    2015 MOH     0.1166 ****
12394 HC2    12.345596   21.180085   -5.670148 H    2015 MOH     0.0372 ****
12395 HC3    13.228942   19.971261   -4.704947 H    2015 MOH     0.0372 ****
12396 O1     11.365256   19.454419   -5.199922 O    2015 MOH    -0.6497 ****
12397 HO1    10.940903   19.903900   -4.465238 H    2015 MOH     0.4215 ****
12398 HC1    16.896849   16.367245  -21.585000 H    2016 MOH     0.0372 ****
12399 C1     16.160150   16.713032  -20.860216 C    2016 MOH     0.1166 ****
12400 HC2    15.889372   15.905108  -20.179272 H    2016 MOH     0.0372 ****
12401 HC3    15.251400   17.012686  -21.380646 H    2016 MOH     0.0372 ****
12402 O1     16.600091   17.794481  -20.066135 O    2016 MOH    -0.6497 ****
12403 HO1    17.547522   17.725896  -19.930370 H    2016 MOH     0.4215 ****
12404 HC1    15.734065   14.116573  -15.822787 H    2017 MOH     0.0372 ****
12405 C1     16.769254   14.420718  -15.979058 C    2017 MOH     0.1166 ****
12406 HC2    17.358151   13.518081  -16.146642 H    2017 MOH     0.0372 ****
12407 HC3    17.142222   14.977568  -15.120630 H    2017 MOH     0.0372 ****
12408 O1     16.766945   15.152298  -17.155683 O    2017 MOH    -0.6497 ****
12409 HO1    17.404339   15.861426  -17.046082 H    2017 MOH     0.4215 ****
12410 HC1    28.796615   19.308674  -11.252049 H    2018 MOH     0.0372 ****
12411 C1     29.180553   19.905533  -12.079364 C    2018 MOH     0.1166 ****
12412 HC2    29.868177   19.288262  -12.657777 H    2018 MOH     0.0372 ****
12413 HC3    29.681693   20.767346  -11.637422 H    2018 MOH     0.0372 ****
12414 O1     28.115342   20.345217  -12.866373 O    2018 MOH    -0.6497 ****
12415 HO1    27.585911   19.589141  -13.128003 H    2018 MOH     0.4215 ****
12416 HC1    19.262830   28.304834   -6.651612 H    2019 MOH     0.0372 ****
12417 C1     19.326338   27.381784   -7.227904 C    2019 MOH     0.1166 ****
12418 HC2    20.358063   27.177660   -7.513575 H    2019 MOH     0.0372 ****
12419 HC3    18.709151   27.493644   -8.118859 H    2019 MOH     0.0372 ****
12420 O1     18.808455   26.328504   -6.462815 O    2019 MOH    -0.6497 ****
12421 HO1    19.058448   25.503842   -6.887079 H    2019 MOH     0.4215 ****
12422 HC1     7.211798   27.612445  -15.134065 H    2020 MOH     0.0372 ****
12423 C1      7.045521   28.682872  -15.015271 C    2020 MOH     0.1166 ****
12424 HC2     7.398859   29.003755  -14.035221 H    2020 MOH     0.0372 ****
12425 HC3     5.978578   28.895977  -15.087396 H    2020 MOH     0.0372 ****
12426 O1      7.732568   29.397306  -16.025020 O    2020 MOH    -0.6497 ****
12427 HO1     7.641924   28.867400  -16.819808 H    2020 MOH     0.4215 ****
12428 HC1     9.689785   27.163371  -15.457920 H    2021 MOH     0.0372 ****
12429 C1      9.957098   26.158672  -15.129115 C    2021 MOH     0.1166 ****
12430 HC2    10.901643   25.869224  -15.589442 H    2021 MOH     0.0372 ****
12431 HC3     9.194419   25.445054  -15.438828 H    2021 MOH     0.0372 ****
12432 O1     10.124530   26.166429  -13.700053 O    2021 MOH    -0.6497 ****
12433 HO1     9.296032   26.354223  -13.253161 H    2021 MOH     0.4215 ****
12434 HC1    12.571340   33.240964  -13.381147 H    2022 MOH     0.0372 ****
12435 C1     12.200681   32.844146  -12.436453 C    2022 MOH     0.1166 ****
12436 HC2    13.055160   32.721264  -11.771065 H    2022 MOH     0.0372 ****
12437 HC3    11.728986   31.868433  -12.552418 H    2022 MOH     0.0372 ****
12438 O1     11.345626   33.779443  -11.874303 O    2022 MOH    -0.6497 ****
12439 HO1    11.530378   33.781076  -10.932437 H    2022 MOH     0.4215 ****
12440 HC1    12.455293   20.186408   -1.229517 H    2023 MOH     0.0372 ****
12441 C1     13.349608   19.743867   -0.789697 C    2023 MOH     0.1166 ****
12442 HC2    13.415426   20.016985    0.263185 H    2023 MOH     0.0372 ****
12443 HC3    14.239883   20.113740   -1.298814 H    2023 MOH     0.0372 ****
12444 O1     13.298224   18.331328   -0.905662 O    2023 MOH    -0.6497 ****
12445 HO1    14.203509   18.023101   -0.817274 H    2023 MOH     0.4215 ****
12446 HC1    11.108912   15.827949  -22.893855 H    2024 MOH     0.0372 ****
12447 C1     11.622754   16.136993  -21.983808 C    2024 MOH     0.1166 ****
12448 HC2    12.705863   16.110865  -22.099774 H    2024 MOH     0.0372 ****
12449 HC3    11.319645   15.497677  -21.153665 H    2024 MOH     0.0372 ****
12450 O1     11.183390   17.394398  -21.700966 O    2024 MOH    -0.6497 ****
12451 HO1    10.851414   17.756514  -22.526159 H    2024 MOH     0.4215 ****
12452 HC1    11.859467   28.566113   -7.642976 H    2025 MOH     0.0372 ****
12453 C1     11.793072   28.305650   -6.586558 C    2025 MOH     0.1166 ****
12454 HC2    11.901037   27.227466   -6.462815 H    2025 MOH     0.0372 ****
12455 HC3    10.809267   28.620410   -6.237955 H    2025 MOH     0.0372 ****
12456 O1     12.776877   29.024575   -5.863188 O    2025 MOH    -0.6497 ****
12457 HO1    13.599601   28.915573   -6.346142 H    2025 MOH     0.4215 ****
12458 HC1    16.186130   23.929229   -3.427205 H    2026 MOH     0.0372 ****
12459 C1     15.775634   22.972703   -3.104057 C    2026 MOH     0.1166 ****
12460 HC2    16.554480   22.210095   -3.082844 H    2026 MOH     0.0372 ****
12461 HC3    14.990438   22.693869   -3.806214 H    2026 MOH     0.0372 ****
12462 O1     15.179809   23.117223   -1.848236 O    2026 MOH    -0.6497 ****
12463 HO1    15.800460   23.566296   -1.269822 H    2026 MOH     0.4215 ****
12464 HC1     4.485550   25.249912  -17.059517 H    2027 MOH     0.0372 ****
12465 C1      5.044425   25.882288  -16.370088 C    2027 MOH     0.1166 ****
12466 HC2     5.089458   26.882905  -16.800716 H    2027 MOH     0.0372 ****
12467 HC3     6.057675   25.487920  -16.289478 H    2027 MOH     0.0372 ****
12468 O1      4.379317   25.894536  -15.081739 O    2027 MOH    -0.6497 ****
12469 HO1     4.846394   25.276448  -14.516054 H    2027 MOH     0.4215 ****
12470 HC1    12.960474   19.036781  -19.160331 H    2028 MOH     0.0372 ****
12471 C1     12.078283   19.620168  -18.899409 C    2028 MOH     0.1166 ****
12472 HC2    12.382547   20.618743  -18.588282 H    2028 MOH     0.0372 ****
12473 HC3    11.543080   19.130270  -18.086236 H    2028 MOH     0.0372 ****
12474 O1     11.257291   19.675281  -20.066842 O    2028 MOH    -0.6497 ****
12475 HO1    11.166647   18.786525  -20.419688 H    2028 MOH     0.4215 ****
12476 HC1    20.497205   10.044296  -13.709245 H    2029 MOH     0.0372 ****
12477 C1     21.334940   10.272507  -14.368975 C    2029 MOH     0.1166 ****
12478 HC2    21.692320   11.273940  -14.133509 H    2029 MOH     0.0372 ****
12479 HC3    20.984488   10.227599  -15.399937 H    2029 MOH     0.0372 ****
12480 O1     22.415740    9.330678  -14.164621 O    2029 MOH    -0.6497 ****
12481 HO1    23.248856    9.718922  -14.442514 H    2029 MOH     0.4215 ****
12482 HC1    14.690793   20.899618  -14.093911 H    2030 MOH     0.0372 ****
12483 C1     14.379024   21.943101  -14.129266 C    2030 MOH     0.1166 ****
12484 HC2    15.185005   22.600380  -13.801169 H    2030 MOH     0.0372 ****
12485 HC3    13.536093   22.066392  -13.450444 H    2030 MOH     0.0372 ****
12486 O1     13.925804   22.289295  -15.423272 O    2030 MOH    -0.6497 ****
12487 HO1    13.714494   23.225000  -15.393573 H    2030 MOH     0.4215 ****
12488 HC1    10.416092   20.070466  -13.277203 H    2031 MOH     0.0372 ****
12489 C1     11.187432   19.777343  -12.564439 C    2031 MOH     0.1166 ****
12490 HC2    12.085211   19.520963  -13.127296 H    2031 MOH     0.0372 ****
12491 HC3    10.857187   18.888995  -12.025624 H    2031 MOH     0.0372 ****
12492 O1     11.447817   20.854711  -11.655807 O    2031 MOH    -0.6497 ****
12493 HO1    10.781555   20.829808  -10.964963 H    2031 MOH     0.4215 ****
12494 HC1    10.286765   20.681205   -7.394074 H    2032 MOH     0.0372 ****
12495 C1     10.770007   20.530562   -8.359275 C    2032 MOH     0.1166 ****
12496 HC2    11.225537   19.540968   -8.379074 H    2032 MOH     0.0372 ****
12497 HC3    11.530378   21.299701   -8.497868 H    2032 MOH     0.0372 ****
12498 O1      9.738860   20.579960   -9.345689 O    2032 MOH    -0.6497 ****
12499 HO1     9.226173   21.380943   -9.215581 H    2032 MOH     0.4215 ****
12500 HC1     5.986661   22.108849  -13.727630 H    2033 MOH     0.0372 ****
12501 C1      6.574403   23.024550  -13.666111 C    2033 MOH     0.1166 ****
12502 HC2     7.040325   23.235206  -14.629191 H    2033 MOH     0.0372 ****
12503 HC3     7.363064   22.875948  -12.929306 H    2033 MOH     0.0372 ****
12504 O1      5.792671   24.149274  -13.290638 O    2033 MOH    -0.6497 ****
12505 HO1     5.392567   23.985159  -12.433624 H    2033 MOH     0.4215 ****
12506 HC1     0.425276  -24.094079  -17.432020 H    2034 MOH     0.0372 ****
12507 C1     -0.286019  -24.919966  -17.442627 C    2034 MOH     0.1166 ****
12508 HC2     0.075979  -25.651138  -18.165997 H    2034 MOH     0.0372 ****
12509 HC3    -1.275020  -24.547643  -17.712742 H    2034 MOH     0.0372 ****
12510 O1     -0.349528  -25.493555  -16.157814 O    2034 MOH    -0.6497 ****
12511 HO1    -0.625501  -24.809739  -15.543338 H    2034 MOH     0.4215 ****
12512 HC1     3.002568  -29.226985  -20.252669 H    2035 MOH     0.0372 ****
12513 C1      2.749689  -28.362315  -19.638901 C    2035 MOH     0.1166 ****
12514 HC2     3.557402  -28.179012  -18.931087 H    2035 MOH     0.0372 ****
12515 HC3     1.831702  -28.595017  -19.100085 H    2035 MOH     0.0372 ****
12516 O1      2.557431  -27.253921  -20.495207 O    2035 MOH    -0.6497 ****
12517 HO1     1.872116  -27.524998  -21.110390 H    2035 MOH     0.4215 ****
12518 HC1    -3.397360  -33.299262  -16.368532 H    2036 MOH     0.0372 ****
12519 C1     -4.288789  -32.672601  -16.400352 C    2036 MOH     0.1166 ****
12520 HC2    -5.177331  -33.303344  -16.440657 H    2036 MOH     0.0372 ****
12521 HC3    -4.279551  -32.054513  -17.298377 H    2036 MOH     0.0372 ****
12522 O1     -4.278396  -31.825077  -15.278880 O    2036 MOH    -0.6497 ****
12523 HO1    -3.522645  -31.244956  -15.395553 H    2036 MOH     0.4215 ****
12524 HC1    -1.740364  -32.037366  -17.782038 H    2037 MOH     0.0372 ****
12525 C1     -1.515775  -30.971430  -17.731834 C    2037 MOH     0.1166 ****
12526 HC2    -1.874887  -30.423561  -18.602989 H    2037 MOH     0.0372 ****
12527 HC3    -0.429779  -30.924890  -17.803959 H    2037 MOH     0.0372 ****
12528 O1     -1.876619  -30.373346  -16.465405 O    2037 MOH    -0.6497 ****
12529 HO1    -1.948788  -29.424577  -16.591270 H    2037 MOH     0.4215 ****
12530 HC1    -0.540631  -24.019778  -21.875479 H    2038 MOH     0.0372 ****
12531 C1     -0.852400  -24.438641  -20.918057 C    2038 MOH     0.1166 ****
12532 HC2    -1.379521  -23.692363  -20.325501 H    2038 MOH     0.0372 ****
12533 HC3     0.040184  -24.772180  -20.389848 H    2038 MOH     0.0372 ****
12534 O1     -1.667041  -25.552751  -21.145038 O    2038 MOH    -0.6497 ****
12535 HO1    -2.352933  -25.311476  -21.770828 H    2038 MOH     0.4215 ****
12536 HC1    -3.790535  -26.281474  -16.999271 H    2039 MOH     0.0372 ****
12537 C1     -3.352904  -27.184927  -17.424242 C    2039 MOH     0.1166 ****
12538 HC2    -3.109262  -26.989785  -18.467932 H    2039 MOH     0.0372 ****
12539 HC3    -4.058426  -28.011222  -17.330904 H    2039 MOH     0.0372 ****
12540 O1     -2.216678  -27.482540  -16.676830 O    2039 MOH    -0.6497 ****
12541 HO1    -1.589099  -26.756675  -16.724914 H    2039 MOH     0.4215 ****
12542 HC1    -1.809646  -28.495404  -20.801384 H    2040 MOH     0.0372 ****
12543 C1     -0.884154  -28.195750  -20.307824 C    2040 MOH     0.1166 ****
12544 HC2    -0.440172  -29.049805  -19.795878 H    2040 MOH     0.0372 ****
12545 HC3    -1.130105  -27.443757  -19.558291 H    2040 MOH     0.0372 ****
12546 O1     -0.001963  -27.696462  -21.333836 O    2040 MOH    -0.6497 ****
12547 HO1    -0.192488  -26.758308  -21.408789 H    2040 MOH     0.4215 ****
12548 HC1     1.425132   -9.951297  -30.111152 H    2041 MOH     0.0372 ****
12549 C1      0.388788   -9.812493  -29.804268 C    2041 MOH     0.1166 ****
12550 HC2    -0.174706   -9.448335  -30.662696 H    2041 MOH     0.0372 ****
12551 HC3     0.318929   -9.062541  -29.015844 H    2041 MOH     0.0372 ****
12552 O1     -0.136601  -11.055201  -29.387075 O    2041 MOH    -0.6497 ****
12553 HO1    -0.899281  -10.902924  -28.824925 H    2041 MOH     0.4215 ****
12554 HC1     8.032905  -19.253234  -21.513441 H    2042 MOH     0.0372 ****
12555 C1      8.094105  -18.473480  -20.755422 C    2042 MOH     0.1166 ****
12556 HC2     8.454371  -18.919287  -19.827698 H    2042 MOH     0.0372 ****
12557 HC3     7.101062  -18.048086  -20.609758 H    2042 MOH     0.0372 ****
12558 O1      8.965326  -17.450818  -21.183222 O    2042 MOH    -0.6497 ****
12559 HO1     9.852136  -17.810893  -21.249690 H    2042 MOH     0.4215 ****
12560 HC1    14.291382  -14.504082  -27.294039 H    2043 MOH     0.0372 ****
12561 C1     14.724972  -14.310981  -26.313282 C    2043 MOH     0.1166 ****
12562 HC2    15.010761  -13.260150  -26.262370 H    2043 MOH     0.0372 ****
12563 HC3    15.612937  -14.930293  -26.186709 H    2043 MOH     0.0372 ****
12564 O1     13.770612  -14.625740  -25.305654 O    2043 MOH    -0.6497 ****
12565 HO1    13.971530  -15.517354  -25.012912 H    2043 MOH     0.4215 ****
12566 HC1     2.474754  -11.402620  -25.442126 H    2044 MOH     0.0372 ****
12567 C1      3.078663  -10.851076  -24.721584 C    2044 MOH     0.1166 ****
12568 HC2     3.890417  -11.486311  -24.368031 H    2044 MOH     0.0372 ****
12569 HC3     2.430298  -10.565303  -23.892855 H    2044 MOH     0.0372 ****
12570 O1      3.583267   -9.727169  -25.377072 O    2044 MOH    -0.6497 ****
12571 HO1     4.396176   -9.465482  -24.937959 H    2044 MOH     0.4215 ****
12572 HC1     0.536590  -16.724136  -21.057357 H    2045 MOH     0.0372 ****
12573 C1     -0.483588  -17.016850  -20.809163 C    2045 MOH     0.1166 ****
12574 HC2    -0.644669  -16.959287  -19.733653 H    2045 MOH     0.0372 ****
12575 HC3    -0.692012  -18.039104  -21.125946 H    2045 MOH     0.0372 ****
12576 O1     -1.369821  -16.124420  -21.410203 O    2045 MOH    -0.6497 ****
12577 HO1    -0.918333  -15.748015  -22.169636 H    2045 MOH     0.4215 ****
12578 HC1    13.244069  -11.751264  -30.380560 H    2046 MOH     0.0372 ****
12579 C1     13.292566  -12.838837  -30.431471 C    2046 MOH     0.1166 ****
12580 HC2    12.914402  -13.193605  -31.389601 H    2046 MOH     0.0372 ****
12581 HC3    12.685771  -13.285461  -29.643755 H    2046 MOH     0.0372 ****
12582 O1     14.629132  -13.273214  -30.357932 O    2046 MOH    -0.6497 ****
12583 HO1    14.596801  -14.232597  -30.336719 H    2046 MOH     0.4215 ****
12584 HC1    -4.864522  -13.937434  -24.853106 H    2047 MOH     0.0372 ****
12585 C1     -3.824137  -13.910081  -25.179082 C    2047 MOH     0.1166 ****
12586 HC2    -3.239859  -14.549806  -24.516523 H    2047 MOH     0.0372 ****
12587 HC3    -3.482923  -12.876396  -25.125342 H    2047 MOH     0.0372 ****
12588 O1     -3.757164  -14.392222  -26.502079 O    2047 MOH    -0.6497 ****
12589 HO1    -4.351835  -15.145032  -26.545920 H    2047 MOH     0.4215 ****
12590 HC1    18.040118  -14.085628  -28.127718 H    2048 MOH     0.0372 ****
12591 C1     18.122679  -13.145840  -27.581831 C    2048 MOH     0.1166 ****
12592 HC2    17.295913  -12.490193  -27.854774 H    2048 MOH     0.0372 ****
12593 HC3    19.079926  -12.683703  -27.826490 H    2048 MOH     0.0372 ****
12594 O1     18.081687  -13.503874  -26.240450 O    2048 MOH    -0.6497 ****
12595 HO1    18.305699  -12.760862  -25.676178 H    2048 MOH     0.4215 ****
12596 HC1     5.947516   -9.461399  -28.384397 H    2049 MOH     0.0372 ****
12597 C1      5.281831   -8.602445  -28.299545 C    2049 MOH     0.1166 ****
12598 HC2     4.239714   -8.922512  -28.306616 H    2049 MOH     0.0372 ****
12599 HC3     5.416931   -7.977825  -29.182014 H    2049 MOH     0.0372 ****
12600 O1      5.507575   -7.805544  -27.096049 O    2049 MOH    -0.6497 ****
12601 HO1     5.434829   -8.372601  -26.326010 H    2049 MOH     0.4215 ****
12602 HC1     6.021994  -20.115455  -19.434547 H    2050 MOH     0.0372 ****
12603 C1      6.321639  -21.162612  -19.449396 C    2050 MOH     0.1166 ****
12604 HC2     6.955570  -21.351222  -20.316309 H    2050 MOH     0.0372 ****
12605 HC3     5.453882  -21.816625  -19.528592 H    2050 MOH     0.0372 ****
12606 O1      7.026584  -21.473697  -18.255800 O    2050 MOH    -0.6497 ****
12607 HO1     7.460751  -22.322037  -18.374594 H    2050 MOH     0.4215 ****
12608 HC1     2.888137   -5.207452  -25.650723 H    2051 MOH     0.0372 ****
12609 C1      2.433763   -4.909431  -26.595417 C    2051 MOH     0.1166 ****
12610 HC2     1.352963   -5.044153  -26.547334 H    2051 MOH     0.0372 ****
12611 HC3     2.856383   -5.534051  -27.383134 H    2051 MOH     0.0372 ****
12612 O1      2.715510   -3.552005  -26.854926 O    2051 MOH    -0.6497 ****
12613 HO1     2.445887   -3.357679  -27.755780 H    2051 MOH     0.4215 ****
12614 HC1     3.929100   -2.293784  -22.527432 H    2052 MOH     0.0372 ****
12615 C1      3.587308   -2.963311  -23.316563 C    2052 MOH     0.1166 ****
12616 HC2     3.089055   -3.839412  -22.900784 H    2052 MOH     0.0372 ****
12617 HC3     4.459685   -3.281337  -23.887198 H    2052 MOH     0.0372 ****
12618 O1      2.806153   -2.233363  -24.238630 O    2052 MOH    -0.6497 ****
12619 HO1     2.833289   -2.720403  -25.065238 H    2052 MOH     0.4215 ****
12620 HC1     6.695762  -18.999712  -26.858461 H    2053 MOH     0.0372 ****
12621 C1      6.555466  -19.154030  -27.927606 C    2053 MOH     0.1166 ****
12622 HC2     6.359167  -18.199546  -28.416924 H    2053 MOH     0.0372 ****
12623 HC3     5.721195  -19.832947  -28.103676 H    2053 MOH     0.0372 ****
12624 O1      7.730951  -19.708431  -28.479150 O    2053 MOH    -0.6497 ****
12625 HO1     8.377584  -19.809269  -27.776993 H    2053 MOH     0.4215 ****
12626 HC1     9.458961  -10.963345  -25.567991 H    2054 MOH     0.0372 ****
12627 C1      9.941625  -11.929260  -25.715069 C    2054 MOH     0.1166 ****
12628 HC2     9.168553  -12.683295  -25.862855 H    2054 MOH     0.0372 ****
12629 HC3    10.506274  -12.171760  -24.815629 H    2054 MOH     0.0372 ****
12630 O1     10.849797  -11.901499  -26.837955 O    2054 MOH    -0.6497 ****
12631 HO1    11.561093  -11.297292  -26.608852 H    2054 MOH     0.4215 ****
12632 HC1    12.023550   -7.691643  -17.432020 H    2055 MOH     0.0372 ****
12633 C1     11.312255   -8.517529  -17.442627 C    2055 MOH     0.1166 ****
12634 HC2    11.674254   -9.248702  -18.165997 H    2055 MOH     0.0372 ****
12635 HC3    10.323254   -8.145207  -17.712742 H    2055 MOH     0.0372 ****
12636 O1     11.248746   -9.091118  -16.157814 O    2055 MOH    -0.6497 ****
12637 HO1    10.972773   -8.407302  -15.543338 H    2055 MOH     0.4215 ****
12638 HC1     7.953231   -6.161937  -34.440060 H    2056 MOH     0.0372 ****
12639 C1      7.372417   -5.780633  -33.600017 C    2056 MOH     0.1166 ****
12640 HC2     7.669752   -4.773484  -33.307982 H    2056 MOH     0.0372 ****
12641 HC3     7.580263   -6.435871  -32.753610 H    2056 MOH     0.0372 ****
12642 O1      5.993127   -5.824315  -33.884981 O    2056 MOH    -0.6497 ****
12643 HO1     5.587827   -6.499150  -33.335559 H    2056 MOH     0.4215 ****
12644 HC1    -3.469067  -16.518787  -23.414144 H    2057 MOH     0.0372 ****
12645 C1     -3.860510  -17.287927  -24.078824 C    2057 MOH     0.1166 ****
12646 HC2    -3.361102  -17.254043  -25.046853 H    2057 MOH     0.0372 ****
12647 HC3    -4.932072  -17.125444  -24.203275 H    2057 MOH     0.0372 ****
12648 O1     -3.719637  -18.554722  -23.494047 O    2057 MOH    -0.6497 ****
12649 HO1    -4.165928  -18.555130  -22.644812 H    2057 MOH     0.4215 ****
12650 HC1     6.885711  -15.159729  -28.662997 H    2058 MOH     0.0372 ****
12651 C1      5.822231  -14.958871  -28.794519 C    2058 MOH     0.1166 ****
12652 HC2     5.240262  -15.879879  -28.767649 H    2058 MOH     0.0372 ****
12653 HC3     5.657109  -14.488160  -29.763963 H    2058 MOH     0.0372 ****
12654 O1      5.371898  -14.068481  -27.815176 O    2058 MOH    -0.6497 ****
12655 HO1     5.482172  -13.174009  -28.145395 H    2058 MOH     0.4215 ****
12656 HC1    10.598650  -12.232180  -31.459605 H    2059 MOH     0.0372 ****
12657 C1     10.194505  -11.886394  -32.410663 C    2059 MOH     0.1166 ****
12658 HC2     9.261507  -12.409768  -32.622795 H    2059 MOH     0.0372 ****
12659 HC3    10.915615  -12.031322  -33.214644 H    2059 MOH     0.0372 ****
12660 O1      9.947976  -10.520395  -32.256514 O    2059 MOH    -0.6497 ****
12661 HO1    10.772433  -10.064790  -32.068424 H    2059 MOH     0.4215 ****
12662 HC1     7.550818  -19.912964  -24.836843 H    2060 MOH     0.0372 ****
12663 C1      8.304837  -20.666590  -25.064531 C    2060 MOH     0.1166 ****
12664 HC2     7.818709  -21.556163  -25.464046 H    2060 MOH     0.0372 ****
12665 HC3     8.793853  -20.956038  -24.134686 H    2060 MOH     0.0372 ****
12666 O1      9.238990  -20.124436  -26.009226 O    2060 MOH    -0.6497 ****
12667 HO1     9.455497  -19.226698  -25.749717 H    2060 MOH     0.4215 ****
12668 HC1     2.893333  -22.137100  -25.348788 H    2061 MOH     0.0372 ****
12669 C1      2.981668  -21.151181  -24.892704 C    2061 MOH     0.1166 ****
12670 HC2     2.380646  -21.119337  -23.984779 H    2061 MOH     0.0372 ****
12671 HC3     2.629484  -20.415926  -25.616074 H    2061 MOH     0.0372 ****
12672 O1      4.321698  -20.947465  -24.585113 O    2061 MOH    -0.6497 ****
12673 HO1     4.806672  -21.414093  -25.268885 H    2061 MOH     0.4215 ****
12674 HC1    12.838192  -10.344849  -33.126255 H    2062 MOH     0.0372 ****
12675 C1     13.258503   -9.461399  -32.645423 C    2062 MOH     0.1166 ****
12676 HC2    13.511960   -8.719612  -33.402734 H    2062 MOH     0.0372 ****
12677 HC3    14.145313   -9.744315  -32.079030 H    2062 MOH     0.0372 ****
12678 O1     12.253336   -8.964969  -31.822351 O    2062 MOH    -0.6497 ****
12679 HO1    12.609561   -8.768602  -30.953316 H    2062 MOH     0.4215 ****
12680 HC1     7.189397   -8.037021  -20.550361 H    2063 MOH     0.0372 ****
12681 C1      7.146673   -7.162961  -21.200193 C    2063 MOH     0.1166 ****
12682 HC2     7.947458   -6.462816  -20.961898 H    2063 MOH     0.0372 ****
12683 HC3     6.207324   -6.646936  -21.005031 H    2063 MOH     0.0372 ****
12684 O1      7.147250   -7.517321  -22.591779 O    2063 MOH    -0.6497 ****
12685 HO1     7.256369   -6.724911  -23.122816 H    2063 MOH     0.4215 ****
12686 HC1     0.672267  -15.320987  -27.665270 H    2064 MOH     0.0372 ****
12687 C1      1.703992  -15.604720  -27.871038 C    2064 MOH     0.1166 ****
12688 HC2     1.974769  -16.430606  -27.214136 H    2064 MOH     0.0372 ****
12689 HC3     2.352356  -14.753930  -27.660320 H    2064 MOH     0.0372 ****
12690 O1      1.841979  -15.923970  -29.232926 O    2064 MOH    -0.6497 ****
12691 HO1     1.545221  -15.131152  -29.685474 H    2064 MOH     0.4215 ****
12692 HC1    12.297792  -19.883162  -20.022153 H    2065 MOH     0.0372 ****
12693 C1     12.372847  -18.841312  -20.331865 C    2065 MOH     0.1166 ****
12694 HC2    13.411501  -18.616775  -20.575110 H    2065 MOH     0.0372 ****
12695 HC3    12.010849  -18.239962  -19.496772 H    2065 MOH     0.0372 ****
12696 O1     11.484883  -18.683728  -21.408082 O    2065 MOH    -0.6497 ****
12697 HO1    11.852077  -19.204245  -22.125795 H    2065 MOH     0.4215 ****
12698 HC1     2.022689  -23.795813  -19.473438 H    2066 MOH     0.0372 ****
12699 C1      3.015154  -23.774993  -19.923865 C    2066 MOH     0.1166 ****
12700 HC2     3.538234  -22.863782  -19.633951 H    2066 MOH     0.0372 ****
12701 HC3     2.955110  -23.830514  -21.009981 H    2066 MOH     0.0372 ****
12702 O1      3.750121  -24.839704  -19.475559 O    2066 MOH    -0.6497 ****
12703 HO1     3.303252  -25.635788  -19.771130 H    2066 MOH     0.4215 ****
12704 HC1    -0.037297  -11.566327  -26.468138 H    2067 MOH     0.0372 ****
12705 C1     -0.276897  -12.199112  -25.613953 C    2067 MOH     0.1166 ****
12706 HC2    -1.322478  -12.074597  -25.333232 H    2067 MOH     0.0372 ****
12707 HC3     0.355302  -11.891701  -24.780274 H    2067 MOH     0.0372 ****
12708 O1      0.025057  -13.549189  -25.930030 O    2067 MOH    -0.6497 ****
12709 HO1    -0.437400  -13.822307  -26.725525 H    2067 MOH     0.4215 ****
12710 HC1     9.197998  -23.192830  -23.947302 H    2068 MOH     0.0372 ****
12711 C1      9.449146  -23.713347  -23.023114 C    2068 MOH     0.1166 ****
12712 HC2     8.782306  -24.566994  -22.902198 H    2068 MOH     0.0372 ****
12713 HC3     9.326170  -23.043412  -22.172464 H    2068 MOH     0.0372 ****
12714 O1     10.789176  -24.144049  -23.119987 O    2068 MOH    -0.6497 ****
12715 HO1    10.979124  -24.699675  -22.361262 H    2068 MOH     0.4215 ****
12716 HC1     0.724228  -16.964595  -24.726534 H    2069 MOH     0.0372 ****
12717 C1     -0.285557  -16.565328  -24.634610 C    2069 MOH     0.1166 ****
12718 HC2    -0.898126  -17.306707  -24.121251 H    2069 MOH     0.0372 ****
12719 HC3    -0.686816  -16.373451  -25.630217 H    2069 MOH     0.0372 ****
12720 O1     -0.217430  -15.376509  -23.872349 O    2069 MOH    -0.6497 ****
12721 HO1     0.116856  -14.683303  -24.446520 H    2069 MOH     0.4215 ****
12722 HC1    -3.531998   -9.728394  -26.302675 H    2070 MOH     0.0372 ****
12723 C1     -2.669436   -9.265440  -26.782094 C    2070 MOH     0.1166 ****
12724 HC2    -1.882508   -9.150722  -26.036096 H    2070 MOH     0.0372 ****
12725 HC3    -2.986402   -8.273397  -27.104534 H    2070 MOH     0.0372 ****
12726 O1     -2.286653  -10.052951  -27.941042 O    2070 MOH    -0.6497 ****
12727 HO1    -2.980628  -10.006819  -28.602186 H    2070 MOH     0.4215 ****
12728 HC1     3.154296  -14.290976  -20.041952 H    2071 MOH     0.0372 ****
12729 C1      3.762245  -13.420183  -20.290146 C    2071 MOH     0.1166 ****
12730 HC2     4.811868  -13.689627  -20.404697 H    2071 MOH     0.0372 ****
12731 HC3     3.705665  -12.697992  -19.474852 H    2071 MOH     0.0372 ****
12732 O1      3.367338  -12.858025  -21.500006 O    2071 MOH    -0.6497 ****
12733 HO1     3.649085  -13.456517  -22.195799 H    2071 MOH     0.4215 ****
12734 HC1     8.734963   -8.041103  -30.729871 H    2072 MOH     0.0372 ****
12735 C1      7.719982   -8.424449  -30.833815 C    2072 MOH     0.1166 ****
12736 HC2     6.998871   -7.607136  -30.812602 H    2072 MOH     0.0372 ****
12737 HC3     7.485000   -9.119287  -30.027714 H    2072 MOH     0.0372 ****
12738 O1      7.592387   -9.136434  -32.016098 O    2072 MOH    -0.6497 ****
12739 HO1     8.312920   -9.769627  -32.047918 H    2072 MOH     0.4215 ****
12740 HC1    11.609013  -16.323237  -23.470005 H    2073 MOH     0.0372 ****
12741 C1     10.986629  -15.428764  -23.479198 C    2073 MOH     0.1166 ****
12742 HC2    11.430612  -14.641662  -22.869672 H    2073 MOH     0.0372 ****
12743 HC3    10.014949  -15.706782  -23.069783 H    2073 MOH     0.0372 ****
12744 O1     10.807074  -14.976017  -24.800780 O    2073 MOH    -0.6497 ****
12745 HO1    11.664439  -14.700450  -25.133827 H    2073 MOH     0.4215 ****
12746 HC1     3.349440  -10.355463  -29.288080 H    2074 MOH     0.0372 ****
12747 C1      3.530728  -11.393638  -29.008773 C    2074 MOH     0.1166 ****
12748 HC2     2.871394  -12.030914  -29.597793 H    2074 MOH     0.0372 ****
12749 HC3     3.306139  -11.548365  -27.953062 H    2074 MOH     0.0372 ****
12750 O1      4.860943  -11.789231  -29.249896 O    2074 MOH    -0.6497 ****
12751 HO1     5.040499  -11.681045  -30.186813 H    2074 MOH     0.4215 ****
12752 HC1     7.237894  -16.143607  -25.629509 H    2075 MOH     0.0372 ****
12753 C1      7.691691  -15.264240  -25.172718 C    2075 MOH     0.1166 ****
12754 HC2     8.528849  -14.947440  -25.794972 H    2075 MOH     0.0372 ****
12755 HC3     7.995378  -15.513272  -24.155899 H    2075 MOH     0.0372 ****
12756 O1      6.741373  -14.266482  -25.208074 O    2075 MOH    -0.6497 ****
12757 HO1     6.413438  -14.210960  -26.108928 H    2075 MOH     0.4215 ****
12758 HC1    -0.929303   -4.671014  -27.958719 H    2076 MOH     0.0372 ****
12759 C1     -1.836897   -4.734701  -27.359093 C    2076 MOH     0.1166 ****
12760 HC2    -2.447734   -5.581408  -27.671634 H    2076 MOH     0.0372 ****
12761 HC3    -2.385957   -3.802670  -27.491322 H    2076 MOH     0.0372 ****
12762 O1     -1.465084   -4.918004  -26.034682 O    2076 MOH    -0.6497 ****
12763 HO1    -0.937963   -5.720620  -26.036096 H    2076 MOH     0.4215 ****
12764 HC1    14.600842  -12.824549  -20.252669 H    2077 MOH     0.0372 ****
12765 C1     14.347963  -11.959879  -19.638901 C    2077 MOH     0.1166 ****
12766 HC2    15.155676  -11.776575  -18.931087 H    2077 MOH     0.0372 ****
12767 HC3    13.429976  -12.192580  -19.100085 H    2077 MOH     0.0372 ****
12768 O1     14.155705  -10.851485  -20.495207 O    2077 MOH    -0.6497 ****
12769 HO1    13.470390  -11.122562  -21.110390 H    2077 MOH     0.4215 ****
12770 HC1    10.860190  -20.084020  -23.786789 H    2078 MOH     0.0372 ****
12771 C1     11.682914  -20.774776  -23.972051 C    2078 MOH     0.1166 ****
12772 HC2    11.958310  -20.653526  -25.019276 H    2078 MOH     0.0372 ****
12773 HC3    11.374609  -21.814584  -23.865278 H    2078 MOH     0.0372 ****
12774 O1     12.772951  -20.464099  -23.087460 O    2078 MOH    -0.6497 ****
12775 HO1    13.383788  -21.204661  -23.074732 H    2078 MOH     0.4215 ****
12776 HC1    15.694344  -19.126269  -24.851692 H    2079 MOH     0.0372 ****
12777 C1     14.862959  -18.442862  -25.021397 C    2079 MOH     0.1166 ****
12778 HC2    13.940931  -18.902957  -24.664309 H    2079 MOH     0.0372 ****
12779 HC3    14.792522  -18.254659  -26.092664 H    2079 MOH     0.0372 ****
12780 O1     15.190894  -17.222199  -24.369445 O    2079 MOH    -0.6497 ****
12781 HO1    15.804040  -17.419383  -23.657388 H    2079 MOH     0.4215 ****
12782 HC1     8.200914  -16.896825  -16.368532 H    2080 MOH     0.0372 ****
12783 C1      7.309486  -16.270164  -16.400352 C    2080 MOH     0.1166 ****
12784 HC2     6.420943  -16.900908  -16.440657 H    2080 MOH     0.0372 ****
12785 HC3     7.318723  -15.652076  -17.298377 H    2080 MOH     0.0372 ****
12786 O1      7.319878  -15.422641  -15.278880 O    2080 MOH    -0.6497 ****
12787 HO1     8.075629  -14.842520  -15.395553 H    2080 MOH     0.4215 ****
12788 HC1     9.857910  -15.634930  -17.782038 H    2081 MOH     0.0372 ****
12789 C1     10.082499  -14.568994  -17.731834 C    2081 MOH     0.1166 ****
12790 HC2     9.723387  -14.021124  -18.602989 H    2081 MOH     0.0372 ****
12791 HC3    11.168495  -14.522453  -17.803959 H    2081 MOH     0.0372 ****
12792 O1      9.721655  -13.970910  -16.465405 O    2081 MOH    -0.6497 ****
12793 HO1     9.649486  -13.022141  -16.591270 H    2081 MOH     0.4215 ****
12794 HC1     4.099995  -17.728835  -21.332421 H    2082 MOH     0.0372 ****
12795 C1      4.445251  -18.571868  -21.929927 C    2082 MOH     0.1166 ****
12796 HC2     5.185414  -19.103816  -21.331007 H    2082 MOH     0.0372 ****
12797 HC3     4.886924  -18.186073  -22.848458 H    2082 MOH     0.0372 ****
12798 O1      3.392741  -19.489610  -22.263681 O    2082 MOH    -0.6497 ****
12799 HO1     3.671602  -20.002778  -23.025235 H    2082 MOH     0.4215 ****
12800 HC1    11.257407   -9.191547  -27.554961 H    2083 MOH     0.0372 ****
12801 C1     10.764927   -8.755130  -28.423995 C    2083 MOH     0.1166 ****
12802 HC2     9.822691   -8.267681  -28.173680 H    2083 MOH     0.0372 ****
12803 HC3    10.512625   -9.589589  -29.078776 H    2083 MOH     0.0372 ****
12804 O1     11.602662   -7.830039  -29.124031 O    2083 MOH    -0.6497 ****
12805 HO1    11.061685   -7.130302  -29.495969 H    2083 MOH     0.4215 ****
12806 HC1    10.132728  -16.027665  -27.909222 H    2084 MOH     0.0372 ****
12807 C1     10.796104  -16.849469  -27.639814 C    2084 MOH     0.1166 ****
12808 HC2    11.812240  -16.463266  -27.562032 H    2084 MOH     0.0372 ****
12809 HC3    10.782247  -17.632081  -28.398539 H    2084 MOH     0.0372 ****
12810 O1     10.417939  -17.276496  -26.352880 O    2084 MOH    -0.6497 ****
12811 HO1    10.471633  -16.507356  -25.781537 H    2084 MOH     0.4215 ****
12812 HC1    13.912641   -9.828414  -23.805881 H    2085 MOH     0.0372 ****
12813 C1     13.573159  -10.574284  -24.525009 C    2085 MOH     0.1166 ****
12814 HC2    13.066822  -11.411601  -24.043469 H    2085 MOH     0.0372 ****
12815 HC3    14.459969  -10.971101  -25.019983 H    2085 MOH     0.0372 ****
12816 O1     12.731959   -9.953747  -25.479603 O    2085 MOH    -0.6497 ****
12817 HO1    13.261390   -9.268706  -25.895382 H    2085 MOH     0.4215 ****
12818 HC1     7.281195  -12.332201  -29.643047 H    2086 MOH     0.0372 ****
12819 C1      7.937643  -12.056634  -28.817854 C    2086 MOH     0.1166 ****
12820 HC2     7.390892  -12.092559  -27.874573 H    2086 MOH     0.0372 ****
12821 HC3     8.284053  -11.033972  -28.968468 H    2086 MOH     0.0372 ****
12822 O1      9.056548  -12.928652  -28.752800 O    2086 MOH    -0.6497 ****
12823 HO1     9.661611  -12.602053  -28.082463 H    2086 MOH     0.4215 ****
12824 HC1    11.057644   -7.617342  -21.875479 H    2087 MOH     0.0372 ****
12825 C1     10.745874   -8.036204  -20.918057 C    2087 MOH     0.1166 ****
12826 HC2    10.218754   -7.289927  -20.325501 H    2087 MOH     0.0372 ****
12827 HC3    11.638458   -8.369743  -20.389848 H    2087 MOH     0.0372 ****
12828 O1      9.931233   -9.150314  -21.145038 O    2087 MOH    -0.6497 ****
12829 HO1     9.245341   -8.909039  -21.770828 H    2087 MOH     0.4215 ****
12830 HC1     3.737420   -2.223157  -29.594964 H    2088 MOH     0.0372 ****
12831 C1      2.829825   -1.843486  -30.064483 C    2088 MOH     0.1166 ****
12832 HC2     2.960306   -1.863490  -31.147064 H    2088 MOH     0.0372 ****
12833 HC3     2.686642   -0.812659  -29.742750 H    2088 MOH     0.0372 ****
12834 O1      1.689558   -2.636713  -29.690424 O    2088 MOH    -0.6497 ****
12835 HO1     0.916486   -2.131709  -29.952760 H    2088 MOH     0.4215 ****
12836 HC1     5.894977  -10.693084  -23.083218 H    2089 MOH     0.0372 ****
12837 C1      6.476946  -10.450585  -23.972758 C    2089 MOH     0.1166 ****
12838 HC2     6.440573  -11.272389  -24.687643 H    2089 MOH     0.0372 ****
12839 HC3     7.504053  -10.307290  -23.635468 H    2089 MOH     0.0372 ****
12840 O1      6.011025   -9.206244  -24.504503 O    2089 MOH    -0.6497 ****
12841 HO1     6.426717   -8.528960  -23.966394 H    2089 MOH     0.4215 ****
12842 HC1     3.389277  -15.259341  -25.411721 H    2090 MOH     0.0372 ****
12843 C1      3.552090  -15.483470  -24.357424 C    2090 MOH     0.1166 ****
12844 HC2     4.119625  -16.410193  -24.265500 H    2090 MOH     0.0372 ****
12845 HC3     2.568285  -15.601045  -23.903462 H    2090 MOH     0.0372 ****
12846 O1      4.244910  -14.406919  -23.765576 O    2090 MOH    -0.6497 ****
12847 HO1     5.083223  -14.316288  -24.223781 H    2090 MOH     0.4215 ****
12848 HC1     1.324673  -21.325503  -20.652185 H    2091 MOH     0.0372 ****
12849 C1      0.931497  -20.890718  -19.733653 C    2091 MOH     0.1166 ****
12850 HC2     0.747322  -19.826007  -19.875074 H    2091 MOH     0.0372 ****
12851 HC3     1.630668  -21.034830  -18.909874 H    2091 MOH     0.0372 ****
12852 O1     -0.233018  -21.551672  -19.404848 O    2091 MOH    -0.6497 ****
12853 HO1    -0.657371  -21.102191  -18.670164 H    2091 MOH     0.4215 ****
12854 HC1     7.664556  -12.701258  -20.856539 H    2092 MOH     0.0372 ****
12855 C1      7.728064  -13.624307  -21.432831 C    2092 MOH     0.1166 ****
12856 HC2     8.759789  -13.828431  -21.718502 H    2092 MOH     0.0372 ****
12857 HC3     7.110877  -13.512447  -22.323785 H    2092 MOH     0.0372 ****
12858 O1      7.210181  -14.677588  -20.667741 O    2092 MOH    -0.6497 ****
12859 HO1     7.460174  -15.502249  -21.092005 H    2092 MOH     0.4215 ****
12860 HC1     2.276723   -7.077638  -32.187925 H    2093 MOH     0.0372 ****
12861 C1      3.147945   -7.732876  -32.207017 C    2093 MOH     0.1166 ****
12862 HC2     3.147368   -8.304424  -33.134741 H    2093 MOH     0.0372 ****
12863 HC3     3.120232   -8.442003  -31.378995 H    2093 MOH     0.0372 ****
12864 O1      4.326317   -6.948223  -32.133478 O    2093 MOH    -0.6497 ****
12865 HO1     4.296872   -6.437504  -31.321012 H    2093 MOH     0.4215 ****
12866 HC1    15.226112  -14.027248  -22.300451 H    2094 MOH     0.0372 ****
12867 C1     16.084632  -13.665540  -22.866136 C    2094 MOH     0.1166 ****
12868 HC2    15.736490  -13.146248  -23.758505 H    2094 MOH     0.0372 ****
12869 HC3    16.713944  -14.506123  -23.159585 H    2094 MOH     0.0372 ****
12870 O1     16.834033  -12.775967  -22.070641 O    2094 MOH    -0.6497 ****
12871 HO1    17.001465  -13.194422  -21.222820 H    2094 MOH     0.4215 ****
12872 HC1     0.973066   -7.765128  -27.586074 H    2095 MOH     0.0372 ****
12873 C1      0.602408   -8.161945  -26.641379 C    2095 MOH     0.1166 ****
12874 HC2     1.456886   -8.284828  -25.975992 H    2095 MOH     0.0372 ****
12875 HC3     0.130712   -9.137658  -26.757345 H    2095 MOH     0.0372 ****
12876 O1     -0.252648   -7.226648  -26.079229 O    2095 MOH    -0.6497 ****
12877 HO1    -0.067896   -7.225015  -25.137363 H    2095 MOH     0.4215 ****
12878 HC1     0.857019  -20.819683  -15.434444 H    2096 MOH     0.0372 ****
12879 C1      1.751334  -21.262224  -14.994623 C    2096 MOH     0.1166 ****
12880 HC2     1.817152  -20.989106  -13.941741 H    2096 MOH     0.0372 ****
12881 HC3     2.641609  -20.892351  -15.503740 H    2096 MOH     0.0372 ****
12882 O1      1.699950  -22.674763  -15.110589 O    2096 MOH    -0.6497 ****
12883 HO1     2.605235  -22.982991  -15.022201 H    2096 MOH     0.4215 ****
12884 HC1     0.261193  -12.439979  -21.847902 H    2097 MOH     0.0372 ****
12885 C1      0.194798  -12.700441  -20.791485 C    2097 MOH     0.1166 ****
12886 HC2     0.302763  -13.778625  -20.667741 H    2097 MOH     0.0372 ****
12887 HC3    -0.789007  -12.385682  -20.442881 H    2097 MOH     0.0372 ****
12888 O1      1.178603  -11.981516  -20.068115 O    2097 MOH    -0.6497 ****
12889 HO1     2.001327  -12.090518  -20.551069 H    2097 MOH     0.4215 ****
12890 HC1     7.807739   -9.879037  -16.999271 H    2098 MOH     0.0372 ****
12891 C1      8.245370  -10.782491  -17.424242 C    2098 MOH     0.1166 ****
12892 HC2     8.489012  -10.587348  -18.467932 H    2098 MOH     0.0372 ****
12893 HC3     7.539848  -11.608785  -17.330904 H    2098 MOH     0.0372 ****
12894 O1      9.381596  -11.080104  -16.676830 O    2098 MOH    -0.6497 ****
12895 HO1    10.009175  -10.354238  -16.724914 H    2098 MOH     0.4215 ****
12896 HC1     4.587856  -17.076863  -17.632132 H    2099 MOH     0.0372 ****
12897 C1      4.177360  -18.033389  -17.308984 C    2099 MOH     0.1166 ****
12898 HC2     4.956206  -18.795996  -17.287771 H    2099 MOH     0.0372 ****
12899 HC3     3.392164  -18.312222  -18.011141 H    2099 MOH     0.0372 ****
12900 O1      3.581535  -17.888869  -16.053162 O    2099 MOH    -0.6497 ****
12901 HO1     4.202186  -17.439796  -15.474749 H    2099 MOH     0.4215 ****
12902 HC1     0.970757   -6.351364  -30.661281 H    2100 MOH     0.0372 ****
12903 C1      1.537138   -6.046402  -29.780933 C    2100 MOH     0.1166 ****
12904 HC2     1.922808   -6.940058  -29.289494 H    2100 MOH     0.0372 ****
12905 HC3     0.883000   -5.522620  -29.084433 H    2100 MOH     0.0372 ****
12906 O1      2.631794   -5.231947  -30.186106 O    2100 MOH    -0.6497 ****
12907 HO1     2.280765   -4.356663  -30.362882 H    2100 MOH     0.4215 ****
12908 HC1     9.788628  -12.092968  -20.801384 H    2101 MOH     0.0372 ****
12909 C1     10.714120  -11.793313  -20.307824 C    2101 MOH     0.1166 ****
12910 HC2    11.158102  -12.647369  -19.795878 H    2101 MOH     0.0372 ****
12911 HC3    10.468169  -11.041320  -19.558291 H    2101 MOH     0.0372 ****
12912 O1     11.596311  -11.294026  -21.333836 O    2101 MOH    -0.6497 ****
12913 HO1    11.405786  -10.355871  -21.408789 H    2101 MOH     0.4215 ****
12914 HC1    -1.311509  -20.324886  -21.599001 H    2102 MOH     0.0372 ****
12915 C1     -0.828266  -20.475530  -22.564202 C    2102 MOH     0.1166 ****
12916 HC2    -0.372737  -21.465124  -22.584001 H    2102 MOH     0.0372 ****
12917 HC3    -0.067896  -19.706390  -22.702794 H    2102 MOH     0.0372 ****
12918 O1     -1.859414  -20.426132  -23.550615 O    2102 MOH    -0.6497 ****
12919 HO1    -2.372101  -19.625149  -23.420508 H    2102 MOH     0.4215 ****
12920 HC1     8.205533   -8.223999  -25.453440 H    2103 MOH     0.0372 ****
12921 C1      9.151233   -7.881070  -25.033418 C    2103 MOH     0.1166 ****
12922 HC2     9.037495   -6.906581  -24.557536 H    2103 MOH     0.0372 ****
12923 HC3     9.881004   -7.767577  -25.835277 H    2103 MOH     0.0372 ****
12924 O1      9.592906   -8.803303  -24.061147 O    2103 MOH    -0.6497 ****
12925 HO1    10.424290   -9.191547  -24.343282 H    2103 MOH     0.4215 ****
12926 HC1     8.123550  -16.289760  -30.382681 H    2104 MOH     0.0372 ****
12927 C1      8.905282  -15.616559  -30.734113 C    2104 MOH     0.1166 ****
12928 HC2     9.464734  -16.051343  -31.562135 H    2104 MOH     0.0372 ****
12929 HC3     9.590597  -15.411618  -29.912455 H    2104 MOH     0.0372 ****
12930 O1      8.331396  -14.417125  -31.179590 O    2104 MOH    -0.6497 ****
12931 HO1     8.526540  -13.773726  -30.493697 H    2104 MOH     0.4215 ****
12932 HC1     7.521835   -4.089832  -26.019832 H    2105 MOH     0.0372 ****
12933 C1      6.721050   -4.483791  -25.394043 C    2105 MOH     0.1166 ****
12934 HC2     6.155247   -5.214147  -25.973163 H    2105 MOH     0.0372 ****
12935 HC3     6.048437   -3.706895  -25.032711 H    2105 MOH     0.0372 ****
12936 O1      7.218149   -5.224762  -24.349646 O    2105 MOH    -0.6497 ****
12937 HO1     7.762590   -4.628719  -23.830630 H    2105 MOH     0.4215 ****
12938 HC1    19.631180   -2.850798  -21.513441 H    2106 MOH     0.0372 ****
12939 C1     19.692379   -2.071044  -20.755422 C    2106 MOH     0.1166 ****
12940 HC2    20.052645   -2.516851  -19.827698 H    2106 MOH     0.0372 ****
12941 HC3    18.699336   -1.645649  -20.609758 H    2106 MOH     0.0372 ****
12942 O1     20.563600   -1.048382  -21.183222 O    2106 MOH    -0.6497 ****
12943 HO1    21.450410   -1.408457  -21.249690 H    2106 MOH     0.4215 ****
12944 HC1    21.882846   -8.483400  -28.289645 H    2107 MOH     0.0372 ****
12945 C1     21.034141   -8.048615  -27.761436 C    2107 MOH     0.1166 ****
12946 HC2    20.897886   -7.021463  -28.099433 H    2107 MOH     0.0372 ****
12947 HC3    21.198686   -8.060863  -26.683806 H    2107 MOH     0.0372 ****
12948 O1     19.868471   -8.746720  -28.095191 O    2107 MOH    -0.6497 ****
12949 HO1    19.895606   -9.547295  -27.565568 H    2107 MOH     0.4215 ****
12950 HC1    14.073029    4.999817  -25.442126 H    2108 MOH     0.0372 ****
12951 C1     14.676937    5.551360  -24.721584 C    2108 MOH     0.1166 ****
12952 HC2    15.488691    4.916126  -24.368031 H    2108 MOH     0.0372 ****
12953 HC3    14.028573    5.837134  -23.892855 H    2108 MOH     0.0372 ****
12954 O1     15.181541    6.675268  -25.377072 O    2108 MOH    -0.6497 ****
12955 HO1    15.994450    6.936955  -24.937959 H    2108 MOH     0.4215 ****
12956 HC1    12.134864   -0.321700  -21.057357 H    2109 MOH     0.0372 ****
12957 C1     11.114686   -0.614414  -20.809163 C    2109 MOH     0.1166 ****
12958 HC2    10.953605   -0.556851  -19.733653 H    2109 MOH     0.0372 ****
12959 HC3    10.906262   -1.636668  -21.125946 H    2109 MOH     0.0372 ****
12960 O1     10.228453    0.278017  -21.410203 O    2109 MOH    -0.6497 ****
12961 HO1    10.679941    0.654422  -22.169636 H    2109 MOH     0.4215 ****
12962 HC1     6.733752    2.465003  -24.853106 H    2110 MOH     0.0372 ****
12963 C1      7.774137    2.492356  -25.179082 C    2110 MOH     0.1166 ****
12964 HC2     8.358416    1.852631  -24.516523 H    2110 MOH     0.0372 ****
12965 HC3     8.115351    3.526040  -25.125342 H    2110 MOH     0.0372 ****
12966 O1      7.841110    2.010214  -26.502079 O    2110 MOH    -0.6497 ****
12967 HO1     7.246439    1.257405  -26.545920 H    2110 MOH     0.4215 ****
12968 HC1     9.614152   -2.217197  -29.013015 H    2111 MOH     0.0372 ****
12969 C1     10.528675   -1.911010  -29.520718 C    2111 MOH     0.1166 ****
12970 HC2    11.123923   -1.256588  -28.883615 H    2111 MOH     0.0372 ****
12971 HC3    10.253279   -1.364774  -30.422986 H    2111 MOH     0.0372 ****
12972 O1     11.230733   -3.050431  -29.918819 O    2111 MOH    -0.6497 ****
12973 HO1    12.165463   -2.851615  -29.829017 H    2111 MOH     0.4215 ****
12974 HC1     6.559970   -2.554818  -33.868718 H    2112 MOH     0.0372 ****
12975 C1      6.602693   -2.313135  -32.806643 C    2112 MOH     0.1166 ****
12976 HC2     7.639615   -2.375189  -32.475717 H    2112 MOH     0.0372 ****
12977 HC3     6.005136   -3.014914  -32.224694 H    2112 MOH     0.0372 ****
12978 O1      6.169103   -1.019396  -32.537236 O    2112 MOH    -0.6497 ****
12979 HO1     5.399496   -0.827928  -33.078172 H    2112 MOH     0.4215 ****
12980 HC1     3.956697    1.382737  -26.153476 H    2113 MOH     0.0372 ****
12981 C1      3.521952    0.497246  -25.690321 C    2113 MOH     0.1166 ****
12982 HC2     3.109724   -0.177588  -26.440561 H    2113 MOH     0.0372 ****
12983 HC3     2.699806    0.783428  -25.033419 H    2113 MOH     0.0372 ****
12984 O1      4.427238   -0.205349  -24.894826 O    2113 MOH    -0.6497 ****
12985 HO1     3.900694   -0.923050  -24.534201 H    2113 MOH     0.4215 ****
12986 HC1    17.620269   -3.713018  -19.434547 H    2114 MOH     0.0372 ****
12987 C1     17.919913   -4.760175  -19.449396 C    2114 MOH     0.1166 ****
12988 HC2    18.553844   -4.948786  -20.316309 H    2114 MOH     0.0372 ****
12989 HC3    17.052156   -5.414189  -19.528592 H    2114 MOH     0.0372 ****
12990 O1     18.624858   -5.071260  -18.255800 O    2114 MOH    -0.6497 ****
12991 HO1    19.059025   -5.919600  -18.374594 H    2114 MOH     0.4215 ****
12992 HC1    18.294036   -2.597276  -26.858461 H    2115 MOH     0.0372 ****
12993 C1     18.153740   -2.751594  -27.927606 C    2115 MOH     0.1166 ****
12994 HC2    17.957441   -1.797109  -28.416924 H    2115 MOH     0.0372 ****
12995 HC3    17.319469   -3.430511  -28.103676 H    2115 MOH     0.0372 ****
12996 O1     19.329225   -3.305995  -28.479150 O    2115 MOH    -0.6497 ****
12997 HO1    19.975858   -3.406832  -27.776993 H    2115 MOH     0.4215 ****
12998 HC1    23.621825    8.710794  -17.432020 H    2116 MOH     0.0372 ****
12999 C1     22.910529    7.884907  -17.442627 C    2116 MOH     0.1166 ****
13000 HC2    23.272528    7.153735  -18.165997 H    2116 MOH     0.0372 ****
13001 HC3    21.921528    8.257230  -17.712742 H    2116 MOH     0.0372 ****
13002 O1     22.847020    7.311319  -16.157814 O    2116 MOH    -0.6497 ****
13003 HO1    22.571047    7.995134  -15.543338 H    2116 MOH     0.4215 ****
13004 HC1     8.129207   -0.116351  -23.414144 H    2117 MOH     0.0372 ****
13005 C1      7.737764   -0.885491  -24.078824 C    2117 MOH     0.1166 ****
13006 HC2     8.237172   -0.851606  -25.046853 H    2117 MOH     0.0372 ****
13007 HC3     6.666202   -0.723008  -24.203275 H    2117 MOH     0.0372 ****
13008 O1      7.878637   -2.152285  -23.494047 O    2117 MOH    -0.6497 ****
13009 HO1     7.432346   -2.152693  -22.644812 H    2117 MOH     0.4215 ****
13010 HC1    18.483985    1.242708  -28.662997 H    2118 MOH     0.0372 ****
13011 C1     17.420505    1.443566  -28.794519 C    2118 MOH     0.1166 ****
13012 HC2    16.838536    0.522558  -28.767649 H    2118 MOH     0.0372 ****
13013 HC3    17.255383    1.914276  -29.763963 H    2118 MOH     0.0372 ****
13014 O1     16.970172    2.333955  -27.815176 O    2118 MOH    -0.6497 ****
13015 HO1    17.080446    3.228427  -28.145395 H    2118 MOH     0.4215 ****
13016 HC1    17.964369   -7.085558  -26.256006 H    2119 MOH     0.0372 ****
13017 C1     17.778463   -6.499721  -27.156153 C    2119 MOH     0.1166 ****
13018 HC2    17.796360   -7.123525  -28.049936 H    2119 MOH     0.0372 ****
13019 HC3    18.526131   -5.714252  -27.265047 H    2119 MOH     0.0372 ****
13020 O1     16.536005   -5.911435  -27.026752 O    2119 MOH    -0.6497 ****
13021 HO1    16.237515   -5.800800  -27.932556 H    2119 MOH     0.4215 ****
13022 HC1    19.149092   -3.510527  -24.836843 H    2120 MOH     0.0372 ****
13023 C1     19.903112   -4.264154  -25.064531 C    2120 MOH     0.1166 ****
13024 HC2    19.416983   -5.153727  -25.464046 H    2120 MOH     0.0372 ****
13025 HC3    20.392127   -4.553602  -24.134686 H    2120 MOH     0.0372 ****
13026 O1     20.837264   -3.722000  -26.009226 O    2120 MOH    -0.6497 ****
13027 HO1    21.053771   -2.824262  -25.749717 H    2120 MOH     0.4215 ****
13028 HC1    15.085701  -10.140071  -27.571225 H    2121 MOH     0.0372 ****
13029 C1     14.678669   -9.139455  -27.716181 C    2121 MOH     0.1166 ****
13030 HC2    13.633088   -9.185178  -28.021652 H    2121 MOH     0.0372 ****
13031 HC3    15.235235   -8.681808  -28.532890 H    2121 MOH     0.0372 ****
13032 O1     14.833399   -8.315610  -26.559355 O    2121 MOH    -0.6497 ****
13033 HO1    15.116300   -7.435426  -26.819570 H    2121 MOH     0.4215 ****
13034 HC1    14.491607   -5.734664  -25.348788 H    2122 MOH     0.0372 ****
13035 C1     14.579942   -4.748744  -24.892704 C    2122 MOH     0.1166 ****
13036 HC2    13.978920   -4.716901  -23.984779 H    2122 MOH     0.0372 ****
13037 HC3    14.227758   -4.013489  -25.616074 H    2122 MOH     0.0372 ****
13038 O1     15.919972   -4.545028  -24.585113 O    2122 MOH    -0.6497 ****
13039 HO1    16.404946   -5.011656  -25.268885 H    2122 MOH     0.4215 ****
13040 HC1    18.787671    8.365416  -20.550361 H    2123 MOH     0.0372 ****
13041 C1     18.744947    9.239475  -21.200193 C    2123 MOH     0.1166 ****
13042 HC2    19.545732    9.939621  -20.961898 H    2123 MOH     0.0372 ****
13043 HC3    17.805598    9.755501  -21.005031 H    2123 MOH     0.0372 ****
13044 O1     18.745524    8.885116  -22.591779 O    2123 MOH    -0.6497 ****
13045 HO1    18.854643    9.677526  -23.122816 H    2123 MOH     0.4215 ****
13046 HC1    16.455176  -10.571998  -24.534908 H    2124 MOH     0.0372 ****
13047 C1     17.531357  -10.563833  -24.704614 C    2124 MOH     0.1166 ****
13048 HC2    17.951668   -9.703654  -24.184890 H    2124 MOH     0.0372 ****
13049 HC3    17.735161  -10.503412  -25.773759 H    2124 MOH     0.0372 ****
13050 O1     18.124873  -11.708561  -24.203982 O    2124 MOH    -0.6497 ****
13051 HO1    17.662992  -11.969840  -23.404951 H    2124 MOH     0.4215 ****
13052 HC1    12.270541    1.081450  -27.665270 H    2125 MOH     0.0372 ****
13053 C1     13.302266    0.797717  -27.871038 C    2125 MOH     0.1166 ****
13054 HC2    13.573043   -0.028169  -27.214136 H    2125 MOH     0.0372 ****
13055 HC3    13.950630    1.648506  -27.660320 H    2125 MOH     0.0372 ****
13056 O1     13.440253    0.478467  -29.232926 O    2125 MOH    -0.6497 ****
13057 HO1    13.143495    1.271285  -29.685474 H    2125 MOH     0.4215 ****
13058 HC1    23.896066   -3.480725  -20.022153 H    2126 MOH     0.0372 ****
13059 C1     23.971121   -2.438875  -20.331865 C    2126 MOH     0.1166 ****
13060 HC2    25.009775   -2.214339  -20.575110 H    2126 MOH     0.0372 ****
13061 HC3    23.609123   -1.837526  -19.496772 H    2126 MOH     0.0372 ****
13062 O1     23.083157   -2.281292  -21.408082 O    2126 MOH    -0.6497 ****
13063 HO1    23.450352   -2.801808  -22.125795 H    2126 MOH     0.4215 ****
13064 HC1    13.620963   -7.393377  -19.473438 H    2127 MOH     0.0372 ****
13065 C1     14.613428   -7.372556  -19.923865 C    2127 MOH     0.1166 ****
13066 HC2    15.136508   -6.461346  -19.633951 H    2127 MOH     0.0372 ****
13067 HC3    14.553384   -7.428078  -21.009981 H    2127 MOH     0.0372 ****
13068 O1     15.348395   -8.437268  -19.475559 O    2127 MOH    -0.6497 ****
13069 HO1    14.901526   -9.233352  -19.771130 H    2127 MOH     0.4215 ****
13070 HC1    11.560978    4.836109  -26.468138 H    2128 MOH     0.0372 ****
13071 C1     11.321377    4.203324  -25.613953 C    2128 MOH     0.1166 ****
13072 HC2    10.275796    4.327840  -25.333232 H    2128 MOH     0.0372 ****
13073 HC3    11.953576    4.510735  -24.780274 H    2128 MOH     0.0372 ****
13074 O1     11.623331    2.853247  -25.930030 O    2128 MOH    -0.6497 ****
13075 HO1    11.160874    2.580129  -26.725525 H    2128 MOH     0.4215 ****
13076 HC1    20.796272   -6.790394  -23.947302 H    2129 MOH     0.0372 ****
13077 C1     21.047420   -7.310911  -23.023114 C    2129 MOH     0.1166 ****
13078 HC2    20.380580   -8.164558  -22.902198 H    2129 MOH     0.0372 ****
13079 HC3    20.924444   -6.640975  -22.172464 H    2129 MOH     0.0372 ****
13080 O1     22.387450   -7.741612  -23.119987 O    2129 MOH    -0.6497 ****
13081 HO1    22.577398   -8.297238  -22.361262 H    2129 MOH     0.4215 ****
13082 HC1    12.322502   -0.562158  -24.726534 H    2130 MOH     0.0372 ****
13083 C1     11.312717   -0.162891  -24.634610 C    2130 MOH     0.1166 ****
13084 HC2    10.700148   -0.904270  -24.121251 H    2130 MOH     0.0372 ****
13085 HC3    10.911458    0.028985  -25.630217 H    2130 MOH     0.0372 ****
13086 O1     11.380844    1.025928  -23.872349 O    2130 MOH    -0.6497 ****
13087 HO1    11.715130    1.719133  -24.446520 H    2130 MOH     0.4215 ****
13088 HC1     8.066276    6.674043  -26.302675 H    2131 MOH     0.0372 ****
13089 C1      8.928838    7.136996  -26.782094 C    2131 MOH     0.1166 ****
13090 HC2     9.715766    7.251714  -26.036096 H    2131 MOH     0.0372 ****
13091 HC3     8.611872    8.129040  -27.104534 H    2131 MOH     0.0372 ****
13092 O1      9.311621    6.349485  -27.941042 O    2131 MOH    -0.6497 ****
13093 HO1     8.617646    6.395618  -28.602186 H    2131 MOH     0.4215 ****
13094 HC1    14.752570    2.111460  -20.041952 H    2132 MOH     0.0372 ****
13095 C1     15.360520    2.982254  -20.290146 C    2132 MOH     0.1166 ****
13096 HC2    16.410142    2.712810  -20.404697 H    2132 MOH     0.0372 ****
13097 HC3    15.303939    3.704445  -19.474852 H    2132 MOH     0.0372 ****
13098 O1     14.965612    3.544412  -21.500006 O    2132 MOH    -0.6497 ****
13099 HO1    15.247359    2.945920  -22.195799 H    2132 MOH     0.4215 ****
13100 HC1    13.812066   -5.632602  -29.840330 H    2133 MOH     0.0372 ****
13101 C1     14.668854   -5.890615  -30.463998 C    2133 MOH     0.1166 ****
13102 HC2    14.854761   -5.097388  -31.187369 H    2133 MOH     0.0372 ****
13103 HC3    14.422903   -6.794477  -31.021199 H    2133 MOH     0.0372 ****
13104 O1     15.832215   -6.081267  -29.662846 O    2133 MOH    -0.6497 ****
13105 HO1    16.528499   -6.429094  -30.224289 H    2133 MOH     0.4215 ****
13106 HC1    23.207287    0.079200  -23.470005 H    2134 MOH     0.0372 ****
13107 C1     22.584904    0.973672  -23.479198 C    2134 MOH     0.1166 ****
13108 HC2    23.028886    1.760775  -22.869672 H    2134 MOH     0.0372 ****
13109 HC3    21.613223    0.695655  -23.069783 H    2134 MOH     0.0372 ****
13110 O1     22.405348    1.426419  -24.800780 O    2134 MOH    -0.6497 ****
13111 HO1    23.262713    1.701987  -25.133827 H    2134 MOH     0.4215 ****
13112 HC1    18.836168    0.258829  -25.629509 H    2135 MOH     0.0372 ****
13113 C1     19.289966    1.138196  -25.172718 C    2135 MOH     0.1166 ****
13114 HC2    20.127123    1.454997  -25.794972 H    2135 MOH     0.0372 ****
13115 HC3    19.593652    0.889165  -24.155899 H    2135 MOH     0.0372 ****
13116 O1     18.339647    2.135955  -25.208074 O    2135 MOH    -0.6497 ****
13117 HO1    18.011712    2.191477  -26.108928 H    2135 MOH     0.4215 ****
13118 HC1    26.199116    3.577888  -20.252669 H    2136 MOH     0.0372 ****
13119 C1     25.946237    4.442558  -19.638901 C    2136 MOH     0.1166 ****
13120 HC2    26.753950    4.625861  -18.931087 H    2136 MOH     0.0372 ****
13121 HC3    25.028250    4.209856  -19.100085 H    2136 MOH     0.0372 ****
13122 O1     25.753979    5.550952  -20.495207 O    2136 MOH    -0.6497 ****
13123 HO1    25.068664    5.279875  -21.110390 H    2136 MOH     0.4215 ****
13124 HC1    22.458464   -3.681583  -23.786789 H    2137 MOH     0.0372 ****
13125 C1     23.281188   -4.372339  -23.972051 C    2137 MOH     0.1166 ****
13126 HC2    23.556584   -4.251090  -25.019276 H    2137 MOH     0.0372 ****
13127 HC3    22.972883   -5.412148  -23.865278 H    2137 MOH     0.0372 ****
13128 O1     24.371225   -4.061662  -23.087460 O    2137 MOH    -0.6497 ****
13129 HO1    24.982062   -4.802225  -23.074732 H    2137 MOH     0.4215 ****
13130 HC1    27.292618   -2.723833  -24.851692 H    2138 MOH     0.0372 ****
13131 C1     26.461233   -2.040425  -25.021397 C    2138 MOH     0.1166 ****
13132 HC2    25.539205   -2.500521  -24.664309 H    2138 MOH     0.0372 ****
13133 HC3    26.390797   -1.852223  -26.092664 H    2138 MOH     0.0372 ****
13134 O1     26.789168   -0.819763  -24.369445 O    2138 MOH    -0.6497 ****
13135 HO1    27.402314   -1.016947  -23.657388 H    2138 MOH     0.4215 ****
13136 HC1    19.799188   -0.494389  -16.368532 H    2139 MOH     0.0372 ****
13137 C1     18.907760    0.132272  -16.400352 C    2139 MOH     0.1166 ****
13138 HC2    18.019218   -0.498471  -16.440657 H    2139 MOH     0.0372 ****
13139 HC3    18.916997    0.750360  -17.298377 H    2139 MOH     0.0372 ****
13140 O1     18.918152    0.979796  -15.278880 O    2139 MOH    -0.6497 ****
13141 HO1    19.673903    1.559917  -15.395553 H    2139 MOH     0.4215 ****
13142 HC1    21.456184    0.767507  -17.782038 H    2140 MOH     0.0372 ****
13143 C1     21.680773    1.833443  -17.731834 C    2140 MOH     0.1166 ****
13144 HC2    21.321661    2.381312  -18.602989 H    2140 MOH     0.0372 ****
13145 HC3    22.766769    1.879983  -17.803959 H    2140 MOH     0.0372 ****
13146 O1     21.319929    2.431527  -16.465405 O    2140 MOH    -0.6497 ****
13147 HO1    21.247760    3.380296  -16.591270 H    2140 MOH     0.4215 ****
13148 HC1    20.542816  -12.683458  -26.414398 H    2141 MOH     0.0372 ****
13149 C1     21.124207  -11.926157  -25.887603 C    2141 MOH     0.1166 ****
13150 HC2    22.177872  -12.170290  -26.024782 H    2141 MOH     0.0372 ****
13151 HC3    20.894422  -11.915543  -24.822700 H    2141 MOH     0.0372 ****
13152 O1     20.996036  -10.665895  -26.439854 O    2141 MOH    -0.6497 ****
13153 HO1    21.794511  -10.189469  -26.198730 H    2141 MOH     0.4215 ****
13154 HC1    15.698269   -1.326399  -21.332421 H    2142 MOH     0.0372 ****
13155 C1     16.043525   -2.169432  -21.929927 C    2142 MOH     0.1166 ****
13156 HC2    16.783688   -2.701379  -21.331007 H    2142 MOH     0.0372 ****
13157 HC3    16.485198   -1.783637  -22.848458 H    2142 MOH     0.0372 ****
13158 O1     14.991015   -3.087174  -22.263681 O    2142 MOH    -0.6497 ****
13159 HO1    15.269876   -3.600342  -23.025235 H    2142 MOH     0.4215 ****
13160 HC1    21.731003    0.374772  -27.909222 H    2143 MOH     0.0372 ****
13161 C1     22.394378   -0.447032  -27.639814 C    2143 MOH     0.1166 ****
13162 HC2    23.410514   -0.060829  -27.562032 H    2143 MOH     0.0372 ****
13163 HC3    22.380522   -1.229644  -28.398539 H    2143 MOH     0.0372 ****
13164 O1     22.016214   -0.874060  -26.352880 O    2143 MOH    -0.6497 ****
13165 HO1    22.069907   -0.104920  -25.781537 H    2143 MOH     0.4215 ****
13166 HC1    22.655918    8.785095  -21.875479 H    2144 MOH     0.0372 ****
13167 C1     22.344148    8.366232  -20.918057 C    2144 MOH     0.1166 ****
13168 HC2    21.817028    9.112510  -20.325501 H    2144 MOH     0.0372 ****
13169 HC3    23.236732    8.032693  -20.389848 H    2144 MOH     0.0372 ****
13170 O1     21.529507    7.252122  -21.145038 O    2144 MOH    -0.6497 ****
13171 HO1    20.843615    7.493397  -21.770828 H    2144 MOH     0.4215 ****
13172 HC1     8.217542   -5.997576  -29.590015 H    2145 MOH     0.0372 ****
13173 C1      8.861288   -5.213331  -29.986701 C    2145 MOH     0.1166 ****
13174 HC2     8.895351   -4.411939  -29.249189 H    2145 MOH     0.0372 ****
13175 HC3     8.462339   -4.773239  -30.901698 H    2145 MOH     0.0372 ****
13176 O1     10.173027   -5.677917  -30.217218 O    2145 MOH    -0.6497 ****
13177 HO1    10.615278   -4.890815  -30.542487 H    2145 MOH     0.4215 ****
13178 HC1    17.493251    5.709352  -23.083218 H    2146 MOH     0.0372 ****
13179 C1     18.075221    5.951852  -23.972758 C    2146 MOH     0.1166 ****
13180 HC2    18.038848    5.130048  -24.687643 H    2146 MOH     0.0372 ****
13181 HC3    19.102327    6.095147  -23.635468 H    2146 MOH     0.0372 ****
13182 O1     17.609299    7.196192  -24.504503 O    2146 MOH    -0.6497 ****
13183 HO1    18.024991    7.873476  -23.966394 H    2146 MOH     0.4215 ****
13184 HC1    14.987551    1.143095  -25.411721 H    2147 MOH     0.0372 ****
13185 C1     15.150364    0.918967  -24.357424 C    2147 MOH     0.1166 ****
13186 HC2    15.717899   -0.007757  -24.265500 H    2147 MOH     0.0372 ****
13187 HC3    14.166559    0.801391  -23.903462 H    2147 MOH     0.0372 ****
13188 O1     15.843184    1.995517  -23.765576 O    2147 MOH    -0.6497 ****
13189 HO1    16.681497    2.086149  -24.223781 H    2147 MOH     0.4215 ****
13190 HC1    12.922947   -4.923066  -20.652185 H    2148 MOH     0.0372 ****
13191 C1     12.529771   -4.488282  -19.733653 C    2148 MOH     0.1166 ****
13192 HC2    12.345596   -3.423570  -19.875074 H    2148 MOH     0.0372 ****
13193 HC3    13.228942   -4.632393  -18.909874 H    2148 MOH     0.0372 ****
13194 O1     11.365256   -5.149236  -19.404848 O    2148 MOH    -0.6497 ****
13195 HO1    10.940903   -4.699754  -18.670164 H    2148 MOH     0.4215 ****
13196 HC1    15.734065  -10.487082  -30.027714 H    2149 MOH     0.0372 ****
13197 C1     16.769254  -10.182937  -30.183984 C    2149 MOH     0.1166 ****
13198 HC2    17.358152  -11.085574  -30.351568 H    2149 MOH     0.0372 ****
13199 HC3    17.142223   -9.626087  -29.325556 H    2149 MOH     0.0372 ****
13200 O1     16.766945   -9.451356  -31.360610 O    2149 MOH    -0.6497 ****
13201 HO1    17.404340   -8.742229  -31.251008 H    2149 MOH     0.4215 ****
13202 HC1    19.262830    3.701179  -20.856539 H    2150 MOH     0.0372 ****
13203 C1     19.326339    2.778129  -21.432831 C    2150 MOH     0.1166 ****
13204 HC2    20.358064    2.574005  -21.718502 H    2150 MOH     0.0372 ****
13205 HC3    18.709151    2.889989  -22.323785 H    2150 MOH     0.0372 ****
13206 O1     18.808455    1.724849  -20.667741 O    2150 MOH    -0.6497 ****
13207 HO1    19.058448    0.900187  -21.092005 H    2150 MOH     0.4215 ****
13208 HC1     7.211798    3.008790  -29.338992 H    2151 MOH     0.0372 ****
13209 C1      7.045521    4.079217  -29.220198 C    2151 MOH     0.1166 ****
13210 HC2     7.398859    4.400100  -28.240148 H    2151 MOH     0.0372 ****
13211 HC3     5.978578    4.292322  -29.292323 H    2151 MOH     0.0372 ****
13212 O1      7.732568    4.793651  -30.229946 O    2151 MOH    -0.6497 ****
13213 HO1     7.641924    4.263745  -31.024734 H    2151 MOH     0.4215 ****
13214 HC1     9.689785    2.559717  -29.662847 H    2152 MOH     0.0372 ****
13215 C1      9.957098    1.555018  -29.334042 C    2152 MOH     0.1166 ****
13216 HC2    10.901644    1.265570  -29.794368 H    2152 MOH     0.0372 ****
13217 HC3     9.194419    0.841400  -29.643755 H    2152 MOH     0.0372 ****
13218 O1     10.124530    1.562774  -27.904979 O    2152 MOH    -0.6497 ****
13219 HO1     9.296032    1.750568  -27.458088 H    2152 MOH     0.4215 ****
13220 HC1    26.824387    2.375188  -22.300451 H    2153 MOH     0.0372 ****
13221 C1     27.682906    2.736896  -22.866136 C    2153 MOH     0.1166 ****
13222 HC2    27.334764    3.256188  -23.758505 H    2153 MOH     0.0372 ****
13223 HC3    28.312218    1.896313  -23.159585 H    2153 MOH     0.0372 ****
13224 O1     28.432307    3.626469  -22.070641 O    2153 MOH    -0.6497 ****
13225 HO1    28.599739    3.208015  -21.222820 H    2153 MOH     0.4215 ****
13226 HC1    12.571340    8.637309  -27.586074 H    2154 MOH     0.0372 ****
13227 C1     12.200682    8.240492  -26.641379 C    2154 MOH     0.1166 ****
13228 HC2    13.055160    8.117609  -25.975992 H    2154 MOH     0.0372 ****
13229 HC3    11.728986    7.264778  -26.757345 H    2154 MOH     0.0372 ****
13230 O1     11.345626    9.175788  -26.079229 O    2154 MOH    -0.6497 ****
13231 HO1    11.530378    9.177421  -25.137363 H    2154 MOH     0.4215 ****
13232 HC1    12.455293   -4.417247  -15.434444 H    2155 MOH     0.0372 ****
13233 C1     13.349609   -4.859788  -14.994623 C    2155 MOH     0.1166 ****
13234 HC2    13.415426   -4.586670  -13.941741 H    2155 MOH     0.0372 ****
13235 HC3    14.239883   -4.489915  -15.503740 H    2155 MOH     0.0372 ****
13236 O1     13.298224   -6.272327  -15.110589 O    2155 MOH    -0.6497 ****
13237 HO1    14.203510   -6.580554  -15.022201 H    2155 MOH     0.4215 ****
13238 HC1    11.859468    3.962458  -21.847902 H    2156 MOH     0.0372 ****
13239 C1     11.793072    3.701995  -20.791485 C    2156 MOH     0.1166 ****
13240 HC2    11.901037    2.623812  -20.667741 H    2156 MOH     0.0372 ****
13241 HC3    10.809267    4.016755  -20.442881 H    2156 MOH     0.0372 ****
13242 O1     12.776877    4.420921  -20.068115 O    2156 MOH    -0.6497 ****
13243 HO1    13.599601    4.311918  -20.551069 H    2156 MOH     0.4215 ****
13244 HC1    19.406013    6.523399  -16.999271 H    2157 MOH     0.0372 ****
13245 C1     19.843644    5.619946  -17.424242 C    2157 MOH     0.1166 ****
13246 HC2    20.087286    5.815089  -18.467932 H    2157 MOH     0.0372 ****
13247 HC3    19.138122    4.793651  -17.330904 H    2157 MOH     0.0372 ****
13248 O1     20.979870    5.322333  -16.676830 O    2157 MOH    -0.6497 ****
13249 HO1    21.607449    6.048198  -16.724914 H    2157 MOH     0.4215 ****
13250 HC1    16.186130   -0.674426  -17.632132 H    2158 MOH     0.0372 ****
13251 C1     15.775634   -1.630952  -17.308984 C    2158 MOH     0.1166 ****
13252 HC2    16.554480   -2.393560  -17.287771 H    2158 MOH     0.0372 ****
13253 HC3    14.990438   -1.909786  -18.011141 H    2158 MOH     0.0372 ****
13254 O1     15.179809   -1.486432  -16.053162 O    2158 MOH    -0.6497 ****
13255 HO1    15.800460   -1.037359  -15.474749 H    2158 MOH     0.4215 ****
13256 HC1     4.485550    0.646257  -31.264443 H    2159 MOH     0.0372 ****
13257 C1      5.044425    1.278633  -30.575014 C    2159 MOH     0.1166 ****
13258 HC2     5.089458    2.279250  -31.005642 H    2159 MOH     0.0372 ****
13259 HC3     6.057675    0.884266  -30.494404 H    2159 MOH     0.0372 ****
13260 O1      4.379318    1.290881  -29.286666 O    2159 MOH    -0.6497 ****
13261 HO1     4.846394    0.672793  -28.720980 H    2159 MOH     0.4215 ****
13262 HC1    12.960475   -5.566874  -33.365258 H    2160 MOH     0.0372 ****
13263 C1     12.078283   -4.983487  -33.104335 C    2160 MOH     0.1166 ****
13264 HC2    12.382547   -3.984912  -32.793208 H    2160 MOH     0.0372 ****
13265 HC3    11.543080   -5.473385  -32.291162 H    2160 MOH     0.0372 ****
13266 O1     11.257291   -4.928374  -34.271768 O    2160 MOH    -0.6497 ****
13267 HO1    11.166647   -5.817130  -34.624615 H    2160 MOH     0.4215 ****
13268 HC1    14.690793   -3.704037  -28.298837 H    2161 MOH     0.0372 ****
13269 C1     14.379024   -2.660554  -28.334193 C    2161 MOH     0.1166 ****
13270 HC2    15.185005   -2.003275  -28.006095 H    2161 MOH     0.0372 ****
13271 HC3    13.536093   -2.537263  -27.655370 H    2161 MOH     0.0372 ****
13272 O1     13.925804   -2.314360  -29.628198 O    2161 MOH    -0.6497 ****
13273 HO1    13.714494   -1.378655  -29.598500 H    2161 MOH     0.4215 ****
13274 HC1    21.386902    4.309469  -20.801384 H    2162 MOH     0.0372 ****
13275 C1     22.312394    4.609123  -20.307824 C    2162 MOH     0.1166 ****
13276 HC2    22.756377    3.755068  -19.795878 H    2162 MOH     0.0372 ****
13277 HC3    22.066443    5.361116  -19.558291 H    2162 MOH     0.0372 ****
13278 O1     23.194585    5.108411  -21.333836 O    2162 MOH    -0.6497 ****
13279 HO1    23.004060    6.046565  -21.408789 H    2162 MOH     0.4215 ****
13280 HC1    10.416092   -4.533189  -27.482129 H    2163 MOH     0.0372 ****
13281 C1     11.187432   -4.826311  -26.769366 C    2163 MOH     0.1166 ****
13282 HC2    12.085212   -5.082691  -27.332223 H    2163 MOH     0.0372 ****
13283 HC3    10.857188   -5.714660  -26.230550 H    2163 MOH     0.0372 ****
13284 O1     11.447817   -3.748944  -25.860733 O    2163 MOH    -0.6497 ****
13285 HO1    10.781555   -3.773847  -25.169890 H    2163 MOH     0.4215 ****
13286 HC1    10.286765   -3.922450  -21.599001 H    2164 MOH     0.0372 ****
13287 C1     10.770008   -4.073093  -22.564202 C    2164 MOH     0.1166 ****
13288 HC2    11.225537   -5.062687  -22.584001 H    2164 MOH     0.0372 ****
13289 HC3    11.530378   -3.303954  -22.702794 H    2164 MOH     0.0372 ****
13290 O1      9.738860   -4.023695  -23.550615 O    2164 MOH    -0.6497 ****
13291 HO1     9.226173   -3.222712  -23.420508 H    2164 MOH     0.4215 ****
13292 HC1     5.986661   -2.494805  -27.932556 H    2165 MOH     0.0372 ****
13293 C1      6.574403   -1.579105  -27.871038 C    2165 MOH     0.1166 ****
13294 HC2     7.040325   -1.368448  -28.834117 H    2165 MOH     0.0372 ****
13295 HC3     7.363064   -1.727707  -27.134233 H    2165 MOH     0.0372 ****
13296 O1      5.792671   -0.454381  -27.495564 O    2165 MOH    -0.6497 ****
13297 HO1     5.392567   -0.618496  -26.638551 H    2165 MOH     0.4215 ****
13298 HC1    25.219237    9.009060  -19.473438 H    2166 MOH     0.0372 ****
13299 C1     26.211702    9.029881  -19.923865 C    2166 MOH     0.1166 ****
13300 HC2    26.734782    9.941091  -19.633951 H    2166 MOH     0.0372 ****
13301 HC3    26.151658    8.974359  -21.009981 H    2166 MOH     0.0372 ****
13302 O1     26.946669    7.965169  -19.475559 O    2166 MOH    -0.6497 ****
13303 HO1    26.499800    7.169085  -19.771130 H    2166 MOH     0.4215 ****
13304 HC1    24.521221   11.479370  -20.652185 H    2167 MOH     0.0372 ****
13305 C1     24.128045   11.914155  -19.733653 C    2167 MOH     0.1166 ****
13306 HC2    23.943871   12.978866  -19.875074 H    2167 MOH     0.0372 ****
13307 HC3    24.827216   11.770043  -18.909874 H    2167 MOH     0.0372 ****
13308 O1     22.963530   11.253201  -19.404848 O    2167 MOH    -0.6497 ****
13309 HO1    22.539177   11.702682  -18.670164 H    2167 MOH     0.4215 ****
13310 HC1    24.053567   11.985190  -15.434444 H    2168 MOH     0.0372 ****
13311 C1     24.947883   11.542649  -14.994623 C    2168 MOH     0.1166 ****
13312 HC2    25.013701   11.815767  -13.941741 H    2168 MOH     0.0372 ****
13313 HC3    25.838157   11.912522  -15.503740 H    2168 MOH     0.0372 ****
13314 O1     24.896498   10.130110  -15.110589 O    2168 MOH    -0.6497 ****
13315 HO1    25.801784    9.821882  -15.022201 H    2168 MOH     0.4215 ****
13316 HC1    27.784405   15.728010  -17.632132 H    2169 MOH     0.0372 ****
13317 C1     27.373908   14.771484  -17.308984 C    2169 MOH     0.1166 ****
13318 HC2    28.152754   14.008877  -17.287771 H    2169 MOH     0.0372 ****
13319 HC3    26.588712   14.492651  -18.011141 H    2169 MOH     0.0372 ****
13320 O1     26.778083   14.916004  -16.053162 O    2169 MOH    -0.6497 ****
13321 HO1    27.398735   15.365078  -15.474749 H    2169 MOH     0.4215 ****
13322 HC1   -28.031972   16.689435   -3.499472 H    2170 MOH     0.0372 ****
13323 C1    -28.226539   17.430814   -2.724483 C    2170 MOH     0.1166 ****
13324 HC2   -29.290596   17.472864   -2.491845 H    2170 MOH     0.0372 ****
13325 HC3   -27.925162   18.419183   -3.071672 H    2170 MOH     0.0372 ****
13326 O1    -27.556813   17.100541   -1.513209 O    2170 MOH    -0.6497 ****
13327 HO1   -27.774474   16.206069   -1.240973 H    2170 MOH     0.4215 ****
13328 HC1   -28.352979   18.719246    0.282135 H    2171 MOH     0.0372 ****
13329 C1    -28.270418   19.659033    0.828022 C    2171 MOH     0.1166 ****
13330 HC2   -29.097183   20.314680    0.555078 H    2171 MOH     0.0372 ****
13331 HC3   -27.313171   20.121170    0.583363 H    2171 MOH     0.0372 ****
13332 O1    -28.311410   19.300999    2.169403 O    2171 MOH    -0.6497 ****
13333 HO1   -28.087398   20.044011    2.733674 H    2171 MOH     0.4215 ****
13334 HC1   -28.794652   12.213401   -1.484217 H    2172 MOH     0.0372 ****
13335 C1    -29.700514   12.537958   -1.995456 C    2172 MOH     0.1166 ****
13336 HC2   -30.586170   12.145223   -1.496238 H    2172 MOH     0.0372 ****
13337 HC3   -29.693009   12.189722   -3.028539 H    2172 MOH     0.0372 ****
13338 O1    -29.793468   13.930085   -1.981314 O    2172 MOH    -0.6497 ****
13339 HO1   -29.523268   14.215450   -1.105208 H    2172 MOH     0.4215 ****
13340 HC1   -29.194756   11.107456    2.952878 H    2173 MOH     0.0372 ****
13341 C1    -28.810818   11.704315    2.125563 C    2173 MOH     0.1166 ****
13342 HC2   -28.123194   11.087044    1.547149 H    2173 MOH     0.0372 ****
13343 HC3   -28.309678   12.566127    2.567504 H    2173 MOH     0.0372 ****
13344 O1    -29.876029   12.143999    1.338553 O    2173 MOH    -0.6497 ****
13345 HO1   -30.405459   11.387923    1.076923 H    2173 MOH     0.4215 ****
13346 HC1   -29.302720   16.564103    1.688571 H    2174 MOH     0.0372 ****
13347 C1    -28.662439   15.688819    1.797465 C    2174 MOH     0.1166 ****
13348 HC2   -28.812550   15.287919    2.800142 H    2174 MOH     0.0372 ****
13349 HC3   -27.623786   16.001537    1.691399 H    2174 MOH     0.0372 ****
13350 O1    -29.041758   14.746990    0.794081 O    2174 MOH    -0.6497 ****
13351 HO1   -29.112772   13.873747    1.186525 H    2174 MOH     0.4215 ****
13352 HC1   -31.166984   18.777625    6.109402 H    2175 MOH     0.0372 ****
13353 C1    -30.308464   19.139333    5.543717 C    2175 MOH     0.1166 ****
13354 HC2   -30.656607   19.658625    4.651348 H    2175 MOH     0.0372 ****
13355 HC3   -29.679153   18.298750    5.250267 H    2175 MOH     0.0372 ****
13356 O1    -29.559064   20.028906    6.339212 O    2175 MOH    -0.6497 ****
13357 HO1   -29.391632   19.610452    7.187033 H    2175 MOH     0.4215 ****
13358 HC1   -27.140659   23.849538   -6.516697 H    2176 MOH     0.0372 ****
13359 C1    -27.327720   22.863619   -6.091725 C    2176 MOH     0.1166 ****
13360 HC2   -27.719741   22.958332   -5.079148 H    2176 MOH     0.0372 ****
13361 HC3   -26.370473   22.347185   -6.023136 H    2176 MOH     0.0372 ****
13362 O1    -28.168920   22.059778   -6.940961 O    2176 MOH    -0.6497 ****
13363 HO1   -28.884834   21.713583   -6.403559 H    2176 MOH     0.4215 ****
13364 HC1   -21.967023   23.744210   -3.432297 H    2177 MOH     0.0372 ****
13365 C1    -22.647142   23.175521   -2.798022 C    2177 MOH     0.1166 ****
13366 HC2   -22.292649   23.212671   -1.767767 H    2177 MOH     0.0372 ****
13367 HC3   -22.701990   22.138978   -3.129655 H    2177 MOH     0.0372 ****
13368 O1    -23.879784   23.798507   -2.880046 O    2177 MOH    -0.6497 ****
13369 HO1   -23.777593   24.691346   -2.544171 H    2177 MOH     0.4215 ****
13370 HC1   -21.637356   24.118574    1.796758 H    2178 MOH     0.0372 ****
13371 C1    -21.803633   24.205531    2.870853 C    2178 MOH     0.1166 ****
13372 HC2   -21.731464   25.261669    3.130361 H    2178 MOH     0.0372 ****
13373 HC3   -21.016705   23.651538    3.383506 H    2178 MOH     0.0372 ****
13374 O1    -23.129229   23.686647    3.104905 O    2178 MOH    -0.6497 ****
13375 HO1   -23.440421   24.035292    3.943534 H    2178 MOH     0.4215 ****
13376 HC1   -29.937921   22.232875    3.874945 H    2179 MOH     0.0372 ****
13377 C1    -28.861740   22.241040    3.705239 C    2179 MOH     0.1166 ****
13378 HC2   -28.441429   23.101219    4.224963 H    2179 MOH     0.0372 ****
13379 HC3   -28.657935   22.301461    2.636094 H    2179 MOH     0.0372 ****
13380 O1    -28.268224   21.096312    4.205871 O    2179 MOH    -0.6497 ****
13381 HO1   -28.730104   20.835033    5.004901 H    2179 MOH     0.4215 ****
13382 HC1   -25.850281   20.121415    1.995455 H    2180 MOH     0.0372 ****
13383 C1    -25.268889   20.878716    2.522250 C    2180 MOH     0.1166 ****
13384 HC2   -24.215225   20.634583    2.385071 H    2180 MOH     0.0372 ****
13385 HC3   -25.498675   20.889330    3.587152 H    2180 MOH     0.0372 ****
13386 O1    -25.397061   22.138978    1.969999 O    2180 MOH    -0.6497 ****
13387 HO1   -24.598586   22.615404    2.211123 H    2180 MOH     0.4215 ****
13388 HC1   -25.629733   19.798899   -2.667207 H    2181 MOH     0.0372 ****
13389 C1    -25.662642   20.884023   -2.766202 C    2181 MOH     0.1166 ****
13390 HC2   -25.217505   21.353100   -1.888683 H    2181 MOH     0.0372 ****
13391 HC3   -26.700141   21.209805   -2.841155 H    2181 MOH     0.0372 ****
13392 O1    -24.976750   21.261244   -3.931514 O    2181 MOH    -0.6497 ****
13393 HO1   -24.875136   22.214504   -3.891209 H    2181 MOH     0.4215 ****
13394 HC1   -25.895892   18.245514    0.495681 H    2182 MOH     0.0372 ****
13395 C1    -25.058156   18.473725   -0.164049 C    2182 MOH     0.1166 ****
13396 HC2   -24.700777   19.475158    0.071417 H    2182 MOH     0.0372 ****
13397 HC3   -25.408608   18.428818   -1.195011 H    2182 MOH     0.0372 ****
13398 O1    -23.977357   17.531896    0.040305 O    2182 MOH    -0.6497 ****
13399 HO1   -23.144240   17.920140   -0.237588 H    2182 MOH     0.4215 ****
13400 HC1   -28.031972   -7.914220  -17.704398 H    2183 MOH     0.0372 ****
13401 C1    -28.226539   -7.172841  -16.929409 C    2183 MOH     0.1166 ****
13402 HC2   -29.290596   -7.130791  -16.696771 H    2183 MOH     0.0372 ****
13403 HC3   -27.925162   -6.184472  -17.276599 H    2183 MOH     0.0372 ****
13404 O1    -27.556813   -7.503114  -15.718135 O    2183 MOH    -0.6497 ****
13405 HO1   -27.774474   -8.397586  -15.445899 H    2183 MOH     0.4215 ****
13406 HC1   -28.352979   -5.884409  -13.922791 H    2184 MOH     0.0372 ****
13407 C1    -28.270418   -4.944622  -13.376905 C    2184 MOH     0.1166 ****
13408 HC2   -29.097183   -4.288975  -13.649848 H    2184 MOH     0.0372 ****
13409 HC3   -27.313171   -4.482485  -13.621564 H    2184 MOH     0.0372 ****
13410 O1    -28.311410   -5.302655  -12.035523 O    2184 MOH    -0.6497 ****
13411 HO1   -28.087398   -4.559644  -11.471252 H    2184 MOH     0.4215 ****
13412 HC1   -28.794652  -12.390254  -15.689144 H    2185 MOH     0.0372 ****
13413 C1    -29.700514  -12.065697  -16.200382 C    2185 MOH     0.1166 ****
13414 HC2   -30.586170  -12.458432  -15.701165 H    2185 MOH     0.0372 ****
13415 HC3   -29.693009  -12.413932  -17.233465 H    2185 MOH     0.0372 ****
13416 O1    -29.793468  -10.673570  -16.186240 O    2185 MOH    -0.6497 ****
13417 HO1   -29.523268  -10.388204  -15.310135 H    2185 MOH     0.4215 ****
13418 HC1   -29.194755  -13.496199  -11.252049 H    2186 MOH     0.0372 ****
13419 C1    -28.810818  -12.899340  -12.079364 C    2186 MOH     0.1166 ****
13420 HC2   -28.123193  -13.516611  -12.657777 H    2186 MOH     0.0372 ****
13421 HC3   -28.309678  -12.037528  -11.637422 H    2186 MOH     0.0372 ****
13422 O1    -29.876029  -12.459656  -12.866374 O    2186 MOH    -0.6497 ****
13423 HO1   -30.405459  -13.215732  -13.128003 H    2186 MOH     0.4215 ****
13424 HC1   -29.302720   -8.039552  -12.516356 H    2187 MOH     0.0372 ****
13425 C1    -28.662439   -8.914836  -12.407461 C    2187 MOH     0.1166 ****
13426 HC2   -28.812550   -9.315736  -11.404784 H    2187 MOH     0.0372 ****
13427 HC3   -27.623785   -8.602118  -12.513527 H    2187 MOH     0.0372 ****
13428 O1    -29.041758   -9.856665  -13.410846 O    2187 MOH    -0.6497 ****
13429 HO1   -29.112772  -10.729908  -13.018402 H    2187 MOH     0.4215 ****
13430 HC1   -31.166984   -5.826030   -8.095524 H    2188 MOH     0.0372 ****
13431 C1    -30.308464   -5.464322   -8.661210 C    2188 MOH     0.1166 ****
13432 HC2   -30.656606   -4.945030   -9.553579 H    2188 MOH     0.0372 ****
13433 HC3   -29.679152   -6.304905   -8.954659 H    2188 MOH     0.0372 ****
13434 O1    -29.559064   -4.574749   -7.865715 O    2188 MOH    -0.6497 ****
13435 HO1   -29.391632   -4.993203   -7.017894 H    2188 MOH     0.4215 ****
13436 HC1   -26.761917    5.350420   -7.308515 H    2189 MOH     0.0372 ****
13437 C1    -26.700718    6.130175   -6.550496 C    2189 MOH     0.1166 ****
13438 HC2   -26.340451    5.684368   -5.622772 H    2189 MOH     0.0372 ****
13439 HC3   -27.693760    6.555569   -6.404832 H    2189 MOH     0.0372 ****
13440 O1    -25.829496    7.152837   -6.978296 O    2189 MOH    -0.6497 ****
13441 HO1   -24.942686    6.792762   -7.044764 H    2189 MOH     0.4215 ****
13442 HC1   -20.503440   10.099573  -13.089112 H    2190 MOH     0.0372 ****
13443 C1    -20.069850   10.292674  -12.108355 C    2190 MOH     0.1166 ****
13444 HC2   -19.784062   11.343505  -12.057444 H    2190 MOH     0.0372 ****
13445 HC3   -19.181885    9.673362  -11.981783 H    2190 MOH     0.0372 ****
13446 O1    -21.024210    9.977915  -11.100728 O    2190 MOH    -0.6497 ****
13447 HO1   -20.823292    9.086300  -10.807986 H    2190 MOH     0.4215 ****
13448 HC1   -27.140659   -0.754116  -20.721623 H    2191 MOH     0.0372 ****
13449 C1    -27.327720   -1.740036  -20.296652 C    2191 MOH     0.1166 ****
13450 HC2   -27.719741   -1.645322  -19.284075 H    2191 MOH     0.0372 ****
13451 HC3   -26.370473   -2.256470  -20.228063 H    2191 MOH     0.0372 ****
13452 O1    -28.168919   -2.543877  -21.145887 O    2191 MOH    -0.6497 ****
13453 HO1   -28.884834   -2.890071  -20.608486 H    2191 MOH     0.4215 ****
13454 HC1   -24.510251   -0.282181  -14.084719 H    2192 MOH     0.0372 ****
13455 C1    -25.358956    0.152603  -13.556510 C    2192 MOH     0.1166 ****
13456 HC2   -25.495210    1.179756  -13.894507 H    2192 MOH     0.0372 ****
13457 HC3   -25.194411    0.140356  -12.478879 H    2192 MOH     0.0372 ****
13458 O1    -26.524626   -0.545501  -13.890264 O    2192 MOH    -0.6497 ****
13459 HO1   -26.497490   -1.346076  -13.360641 H    2192 MOH     0.4215 ****
13460 HC1   -16.433698    8.488217  -17.704398 H    2193 MOH     0.0372 ****
13461 C1    -16.628265    9.229596  -16.929409 C    2193 MOH     0.1166 ****
13462 HC2   -17.692321    9.271645  -16.696771 H    2193 MOH     0.0372 ****
13463 HC3   -16.326888   10.217965  -17.276599 H    2193 MOH     0.0372 ****
13464 O1    -15.958539    8.899323  -15.718135 O    2193 MOH    -0.6497 ****
13465 HO1   -16.176200    8.004851  -15.445899 H    2193 MOH     0.4215 ****
13466 HC1   -25.615877    6.793578  -23.698543 H    2194 MOH     0.0372 ****
13467 C1    -26.408001    6.261222  -23.172455 C    2194 MOH     0.1166 ****
13468 HC2   -26.380866    6.518827  -22.113916 H    2194 MOH     0.0372 ****
13469 HC3   -26.242302    5.193653  -23.314584 H    2194 MOH     0.0372 ****
13470 O1    -27.636602    6.676819  -23.728241 O    2194 MOH    -0.6497 ****
13471 HO1   -28.331155    6.317969  -23.170334 H    2194 MOH     0.4215 ****
13472 HC1   -21.550753   12.852391  -16.175634 H    2195 MOH     0.0372 ****
13473 C1    -21.502256   11.764817  -16.226545 C    2195 MOH     0.1166 ****
13474 HC2   -21.880420   11.410050  -17.184675 H    2195 MOH     0.0372 ****
13475 HC3   -22.109051   11.318194  -15.438828 H    2195 MOH     0.0372 ****
13476 O1    -20.165690   11.330441  -16.153006 O    2195 MOH    -0.6497 ****
13477 HO1   -20.198022   10.371058  -16.131793 H    2195 MOH     0.4215 ****
13478 HC1   -22.353848    7.270820  -23.253772 H    2196 MOH     0.0372 ****
13479 C1    -22.155239    8.231428  -22.779304 C    2196 MOH     0.1166 ****
13480 HC2   -21.090605    8.448617  -22.862742 H    2196 MOH     0.0372 ****
13481 HC3   -22.384447    8.196319  -21.714401 H    2196 MOH     0.0372 ****
13482 O1    -22.948518    9.227146  -23.430549 O    2196 MOH    -0.6497 ****
13483 HO1   -22.901176   10.003226  -22.866985 H    2196 MOH     0.4215 ****
13484 HC1   -23.512590    1.803559  -18.241800 H    2197 MOH     0.0372 ****
13485 C1    -23.465247    2.526975  -17.427213 C    2197 MOH     0.1166 ****
13486 HC2   -24.258526    3.254474  -17.598332 H    2197 MOH     0.0372 ****
13487 HC3   -22.504536    3.040552  -17.473882 H    2197 MOH     0.0372 ****
13488 O1    -23.650576    1.885209  -16.133207 O    2197 MOH    -0.6497 ****
13489 HO1   -23.842257    2.560860  -15.477719 H    2197 MOH     0.4215 ****
13490 HC1   -16.754705   10.518027  -13.922791 H    2198 MOH     0.0372 ****
13491 C1    -16.672144   11.457815  -13.376905 C    2198 MOH     0.1166 ****
13492 HC2   -17.498909   12.113462  -13.649848 H    2198 MOH     0.0372 ****
13493 HC3   -15.714897   11.919952  -13.621564 H    2198 MOH     0.0372 ****
13494 O1    -16.713135   11.099781  -12.035523 O    2198 MOH    -0.6497 ****
13495 HO1   -16.489124   11.842793  -11.471252 H    2198 MOH     0.4215 ****
13496 HC1   -28.847306   15.142256  -14.179471 H    2199 MOH     0.0372 ****
13497 C1    -29.512991   16.001210  -14.094618 C    2199 MOH     0.1166 ****
13498 HC2   -30.555108   15.681143  -14.101690 H    2199 MOH     0.0372 ****
13499 HC3   -29.377891   16.625830  -14.977088 H    2199 MOH     0.0372 ****
13500 O1    -29.287247   16.798111  -12.891123 O    2199 MOH    -0.6497 ****
13501 HO1   -29.359993   16.231054  -12.121083 H    2199 MOH     0.4215 ****
13502 HC1   -28.772828    4.488200   -5.229621 H    2200 MOH     0.0372 ****
13503 C1    -28.473183    3.441043   -5.244470 C    2200 MOH     0.1166 ****
13504 HC2   -27.839253    3.252432   -6.111383 H    2200 MOH     0.0372 ****
13505 HC3   -29.340941    2.787029   -5.323666 H    2200 MOH     0.0372 ****
13506 O1    -27.768239    3.129958   -4.050874 O    2200 MOH    -0.6497 ****
13507 HO1   -27.334071    2.281618   -4.169668 H    2200 MOH     0.4215 ****
13508 HC1   -21.967023   -0.859444  -17.637223 H    2201 MOH     0.0372 ****
13509 C1    -22.647141   -1.428134  -17.002948 C    2201 MOH     0.1166 ****
13510 HC2   -22.292648   -1.390984  -15.972694 H    2201 MOH     0.0372 ****
13511 HC3   -22.701990   -2.464677  -17.334582 H    2201 MOH     0.0372 ****
13512 O1    -23.879784   -0.805147  -17.084973 O    2201 MOH    -0.6497 ****
13513 HO1   -23.777593    0.087692  -16.749097 H    2201 MOH     0.4215 ****
13514 HC1   -28.099060    5.603943  -12.653535 H    2202 MOH     0.0372 ****
13515 C1    -28.239356    5.449625  -13.722680 C    2202 MOH     0.1166 ****
13516 HC2   -28.435655    6.404109  -14.211998 H    2202 MOH     0.0372 ****
13517 HC3   -29.073627    4.770708  -13.898750 H    2202 MOH     0.0372 ****
13518 O1    -27.063871    4.895224  -14.274223 O    2202 MOH    -0.6497 ****
13519 HO1   -26.417239    4.794386  -13.572066 H    2202 MOH     0.4215 ****
13520 HC1   -25.335862   13.640310  -11.363065 H    2203 MOH     0.0372 ****
13521 C1    -24.853197   12.674395  -11.510143 C    2203 MOH     0.1166 ****
13522 HC2   -25.626269   11.920360  -11.657928 H    2203 MOH     0.0372 ****
13523 HC3   -24.288548   12.431895  -10.610703 H    2203 MOH     0.0372 ****
13524 O1    -23.945025   12.702156  -12.633029 O    2203 MOH    -0.6497 ****
13525 HO1   -23.233729   13.306363  -12.403926 H    2203 MOH     0.4215 ****
13526 HC1   -21.637356   -0.485081  -12.408169 H    2204 MOH     0.0372 ****
13527 C1    -21.803633   -0.398124  -11.334073 C    2204 MOH     0.1166 ****
13528 HC2   -21.731464    0.658015  -11.074565 H    2204 MOH     0.0372 ****
13529 HC3   -21.016704   -0.952117  -10.821421 H    2204 MOH     0.0372 ****
13530 O1    -23.129229   -0.917007  -11.100021 O    2204 MOH    -0.6497 ****
13531 HO1   -23.440421   -0.568363  -10.261392 H    2204 MOH     0.4215 ****
13532 HC1   -22.771272   16.912012   -3.227094 H    2205 MOH     0.0372 ****
13533 C1    -23.482567   16.086126   -3.237701 C    2205 MOH     0.1166 ****
13534 HC2   -23.120569   15.354953   -3.961071 H    2205 MOH     0.0372 ****
13535 HC3   -24.471568   16.458448   -3.507816 H    2205 MOH     0.0372 ****
13536 O1    -23.546076   15.512537   -1.952888 O    2205 MOH    -0.6497 ****
13537 HO1   -23.822049   16.196353   -1.338412 H    2205 MOH     0.4215 ****
13538 HC1   -22.043810    5.652932  -13.589744 H    2206 MOH     0.0372 ****
13539 C1    -22.060554    4.645784  -14.007644 C    2206 MOH     0.1166 ****
13540 HC2   -21.558836    3.987279  -13.299830 H    2206 MOH     0.0372 ****
13541 HC3   -21.509184    4.617206  -14.948096 H    2206 MOH     0.0372 ****
13542 O1    -23.403470    4.210183  -14.156844 O    2206 MOH    -0.6497 ****
13543 HO1   -23.895373    4.471054  -13.374076 H    2206 MOH     0.4215 ****
13544 HC1   -27.909112    9.443926  -14.458071 H    2207 MOH     0.0372 ****
13545 C1    -28.972591    9.644784  -14.589593 C    2207 MOH     0.1166 ****
13546 HC2   -29.554560    8.723776  -14.562723 H    2207 MOH     0.0372 ****
13547 HC3   -29.137713   10.115494  -15.559037 H    2207 MOH     0.0372 ****
13548 O1    -29.422924   10.535174  -13.610250 O    2207 MOH    -0.6497 ****
13549 HO1   -29.312650   11.429646  -13.940469 H    2207 MOH     0.4215 ****
13550 HC1   -24.196172   12.371474  -17.254679 H    2208 MOH     0.0372 ****
13551 C1    -24.600317   12.717261  -18.205737 C    2208 MOH     0.1166 ****
13552 HC2   -25.533315   12.193886  -18.417869 H    2208 MOH     0.0372 ****
13553 HC3   -23.879207   12.572333  -19.009718 H    2208 MOH     0.0372 ****
13554 O1    -24.846846   14.083260  -18.051588 O    2208 MOH    -0.6497 ****
13555 HO1   -24.022390   14.538865  -17.863498 H    2208 MOH     0.4215 ****
13556 HC1   -28.428727    1.115661  -12.051080 H    2209 MOH     0.0372 ****
13557 C1    -28.614634    1.701497  -12.951227 C    2209 MOH     0.1166 ****
13558 HC2   -28.596736    1.077694  -13.845010 H    2209 MOH     0.0372 ****
13559 HC3   -27.866965    2.486967  -13.060121 H    2209 MOH     0.0372 ****
13560 O1    -29.857092    2.289783  -12.821826 O    2209 MOH    -0.6497 ****
13561 HO1   -30.155582    2.400418  -13.727630 H    2209 MOH     0.4215 ****
13562 HC1   -27.244004    4.690691  -10.631916 H    2210 MOH     0.0372 ****
13563 C1    -26.489985    3.937065  -10.859605 C    2210 MOH     0.1166 ****
13564 HC2   -26.976114    3.047492  -11.259120 H    2210 MOH     0.0372 ****
13565 HC3   -26.000969    3.647617   -9.929759 H    2210 MOH     0.0372 ****
13566 O1    -25.555832    4.479219  -11.804299 O    2210 MOH    -0.6497 ****
13567 HO1   -25.339326    5.376957  -11.544791 H    2210 MOH     0.4215 ****
13568 HC1   -28.998572   13.043451  -19.718239 H    2211 MOH     0.0372 ****
13569 C1    -29.235863   12.756861  -18.692934 C    2211 MOH     0.1166 ****
13570 HC2   -28.473760   12.094274  -18.283519 H    2211 MOH     0.0372 ****
13571 HC3   -30.189068   12.228179  -18.712026 H    2211 MOH     0.0372 ****
13572 O1    -29.337476   13.883218  -17.855012 O    2211 MOH    -0.6497 ****
13573 HO1   -28.563827   14.439660  -17.974513 H    2211 MOH     0.4215 ****
13574 HC1   -21.956631   14.258806  -18.921329 H    2212 MOH     0.0372 ****
13575 C1    -21.536320   15.142256  -18.440497 C    2212 MOH     0.1166 ****
13576 HC2   -21.282863   15.884043  -19.197808 H    2212 MOH     0.0372 ****
13577 HC3   -20.649510   14.859340  -17.874104 H    2212 MOH     0.0372 ****
13578 O1    -22.541486   15.638685  -17.617424 O    2212 MOH    -0.6497 ****
13579 HO1   -22.185261   15.835053  -16.748390 H    2212 MOH     0.4215 ****
13580 HC1   -27.605426   16.566634   -6.345435 H    2213 MOH     0.0372 ****
13581 C1    -27.648150   17.440694   -6.995266 C    2213 MOH     0.1166 ****
13582 HC2   -26.847365   18.140839   -6.756971 H    2213 MOH     0.0372 ****
13583 HC3   -28.587499   17.956719   -6.800105 H    2213 MOH     0.0372 ****
13584 O1    -27.647572   17.086334   -8.386852 O    2213 MOH    -0.6497 ****
13585 HO1   -27.538453   17.878744   -8.917890 H    2213 MOH     0.4215 ****
13586 HC1   -29.937921   -2.370780  -10.329982 H    2214 MOH     0.0372 ****
13587 C1    -28.861740   -2.362615  -10.499687 C    2214 MOH     0.1166 ****
13588 HC2   -28.441429   -1.502435   -9.979964 H    2214 MOH     0.0372 ****
13589 HC3   -28.657935   -2.302194  -11.568833 H    2214 MOH     0.0372 ****
13590 O1    -28.268224   -3.507343   -9.999056 O    2214 MOH    -0.6497 ****
13591 HO1   -28.730104   -3.768622   -9.200025 H    2214 MOH     0.4215 ****
13592 HC1   -28.628490    8.555169  -19.146896 H    2215 MOH     0.0372 ****
13593 C1    -28.614057    9.262664  -19.976333 C    2215 MOH     0.1166 ****
13594 HC2   -29.604790    9.693774  -20.117754 H    2215 MOH     0.0372 ****
13595 HC3   -28.275152    8.769500  -20.887086 H    2215 MOH     0.0372 ****
13596 O1    -27.737061   10.314311  -19.669448 O    2215 MOH    -0.6497 ****
13597 HO1   -27.540762   10.321252  -18.729703 H    2215 MOH     0.4215 ****
13598 HC1   -22.497031    4.720493   -5.817226 H    2216 MOH     0.0372 ****
13599 C1    -22.421975    5.762343   -6.126939 C    2216 MOH     0.1166 ****
13600 HC2   -21.383322    5.986879   -6.370184 H    2216 MOH     0.0372 ****
13601 HC3   -22.783974    6.363693   -5.291846 H    2216 MOH     0.0372 ****
13602 O1    -23.309940    5.919927   -7.203156 O    2216 MOH    -0.6497 ****
13603 HO1   -22.942745    5.399410   -7.920869 H    2216 MOH     0.4215 ****
13604 HC1   -23.874588   13.193686  -21.795718 H    2217 MOH     0.0372 ****
13605 C1    -23.130961   12.672762  -22.398173 C    2217 MOH     0.1166 ****
13606 HC2   -22.215283   13.262272  -22.446257 H    2217 MOH     0.0372 ****
13607 HC3   -23.466979   12.551512  -23.428428 H    2217 MOH     0.0372 ****
13608 O1    -22.792634   11.443934  -21.814103 O    2217 MOH    -0.6497 ****
13609 HO1   -23.496424   11.172449  -21.220840 H    2217 MOH     0.4215 ****
13610 HC1   -23.158674    7.516586  -17.135885 H    2218 MOH     0.0372 ****
13611 C1    -23.197934    6.446975  -17.340946 C    2218 MOH     0.1166 ****
13612 HC2   -23.976202    6.018723  -16.709499 H    2218 MOH     0.0372 ****
13613 HC3   -22.229140    6.010558  -17.096994 H    2218 MOH     0.0372 ****
13614 O1    -23.486609    6.155078  -18.709197 O    2218 MOH    -0.6497 ****
13615 HO1   -23.057060    5.340622  -18.981433 H    2218 MOH     0.4215 ****
13616 HC1   -18.997133    6.196719  -19.382363 H    2219 MOH     0.0372 ****
13617 C1    -19.519635    7.125892  -19.154674 C    2219 MOH     0.1166 ****
13618 HC2   -20.551937    6.912787  -18.876074 H    2219 MOH     0.0372 ****
13619 HC3   -19.479221    7.772149  -20.030780 H    2219 MOH     0.0372 ****
13620 O1    -18.832011    7.689275  -18.088357 O    2219 MOH    -0.6497 ****
13621 HO1   -18.369553    6.974024  -17.645709 H    2219 MOH     0.4215 ****
13622 HC1   -25.596824    1.410824   -9.742376 H    2220 MOH     0.0372 ****
13623 C1    -25.345677    0.890308   -8.818187 C    2220 MOH     0.1166 ****
13624 HC2   -26.012516    0.036661   -8.697272 H    2220 MOH     0.0372 ****
13625 HC3   -25.468652    1.560243   -7.967538 H    2220 MOH     0.0372 ****
13626 O1    -24.005647    0.459606   -8.915061 O    2220 MOH    -0.6497 ****
13627 HO1   -23.815699   -0.096020   -8.156336 H    2220 MOH     0.4215 ****
13628 HC1   -24.124003    8.341247  -19.763493 H    2221 MOH     0.0372 ****
13629 C1    -25.061043    8.597219  -20.256347 C    2221 MOH     0.1166 ****
13630 HC2   -25.899356    8.265313  -19.643285 H    2221 MOH     0.0372 ****
13631 HC3   -25.079518    8.098340  -21.225083 H    2221 MOH     0.0372 ****
13632 O1    -25.091643    9.980772  -20.473429 O    2221 MOH    -0.6497 ****
13633 HO1   -26.007897   10.222047  -20.625457 H    2221 MOH     0.4215 ****
13634 HC1   -27.453582    3.631287  -21.471156 H    2222 MOH     0.0372 ****
13635 C1    -27.148164    2.651083  -21.838145 C    2222 MOH     0.1166 ****
13636 HC2   -26.199000    2.730691  -22.367768 H    2222 MOH     0.0372 ****
13637 HC3   -27.914885    2.258756  -22.504946 H    2222 MOH     0.0372 ****
13638 O1    -26.994589    1.730483  -20.764049 O    2222 MOH    -0.6497 ****
13639 HO1   -26.145307    1.296515  -20.872237 H    2222 MOH     0.4215 ****
13640 HC1   -21.612530    0.982980  -14.798190 H    2223 MOH     0.0372 ****
13641 C1    -20.741308    1.486350  -15.217504 C    2223 MOH     0.1166 ****
13642 HC2   -21.039221    2.435528  -15.660860 H    2223 MOH     0.0372 ****
13643 HC3   -20.302522    0.874794  -16.006635 H    2223 MOH     0.0372 ****
13644 O1    -19.772515    1.761510  -14.231797 O    2223 MOH    -0.6497 ****
13645 HO1   -19.342389    0.923376  -14.048656 H    2223 MOH     0.4215 ****
13646 HC1   -26.059859   16.562551  -16.524944 H    2224 MOH     0.0372 ****
13647 C1    -27.074841   16.179206  -16.628889 C    2224 MOH     0.1166 ****
13648 HC2   -27.795951   16.996519  -16.607676 H    2224 MOH     0.0372 ****
13649 HC3   -27.309822   15.484368  -15.822787 H    2224 MOH     0.0372 ****
13650 O1    -27.202435   15.467221  -17.811172 O    2224 MOH    -0.6497 ****
13651 HO1   -26.481902   14.834028  -17.842991 H    2224 MOH     0.4215 ****
13652 HC1   -26.526358    2.228546  -16.452112 H    2225 MOH     0.0372 ****
13653 C1    -27.024611    1.452874  -17.031940 C    2225 MOH     0.1166 ****
13654 HC2   -26.297727    0.707413  -17.354381 H    2225 MOH     0.0372 ****
13655 HC3   -27.487069    1.926850  -17.898146 H    2225 MOH     0.0372 ****
13656 O1    -27.999756    0.822130  -16.235031 O    2225 MOH    -0.6497 ****
13657 HO1   -27.528061    0.453074  -15.485497 H    2225 MOH     0.4215 ****
13658 HC1   -23.185809    8.280418   -9.265079 H    2226 MOH     0.0372 ****
13659 C1    -23.808193    9.174890   -9.274271 C    2226 MOH     0.1166 ****
13660 HC2   -23.364211    9.961993   -8.664745 H    2226 MOH     0.0372 ****
13661 HC3   -24.779873    8.896873   -8.864857 H    2226 MOH     0.0372 ****
13662 O1    -23.987749    9.627638  -10.595854 O    2226 MOH    -0.6497 ****
13663 HO1   -23.130384    9.903205  -10.928901 H    2226 MOH     0.4215 ****
13664 HC1   -27.556928    8.460048  -11.424583 H    2227 MOH     0.0372 ****
13665 C1    -27.103131    9.339414  -10.967792 C    2227 MOH     0.1166 ****
13666 HC2   -26.265973    9.656215  -11.590046 H    2227 MOH     0.0372 ****
13667 HC3   -26.799445    9.090383   -9.950973 H    2227 MOH     0.0372 ****
13668 O1    -28.053449   10.337173  -11.003148 O    2227 MOH    -0.6497 ****
13669 HO1   -28.381384   10.392695  -11.904002 H    2227 MOH     0.4215 ****
13670 HC1   -20.193980   11.779106   -6.047743 H    2228 MOH     0.0372 ****
13671 C1    -20.446860   12.643776   -5.433974 C    2228 MOH     0.1166 ****
13672 HC2   -19.639147   12.827080   -4.726161 H    2228 MOH     0.0372 ****
13673 HC3   -21.364847   12.411075   -4.895159 H    2228 MOH     0.0372 ****
13674 O1    -20.639117   13.752170   -6.290281 O    2228 MOH    -0.6497 ****
13675 HO1   -21.324432   13.481093   -6.905464 H    2228 MOH     0.4215 ****
13676 HC1   -23.934633    4.519635   -9.581863 H    2229 MOH     0.0372 ****
13677 C1    -23.111909    3.828879   -9.767125 C    2229 MOH     0.1166 ****
13678 HC2   -22.836512    3.950129  -10.814350 H    2229 MOH     0.0372 ****
13679 HC3   -23.420214    2.789071   -9.660352 H    2229 MOH     0.0372 ****
13680 O1    -22.021871    4.139556   -8.882534 O    2229 MOH    -0.6497 ****
13681 HO1   -21.411035    3.398994   -8.869806 H    2229 MOH     0.4215 ****
13682 HC1   -28.187395    5.861139  -18.777079 H    2230 MOH     0.0372 ****
13683 C1    -27.260170    5.684367  -18.233314 C    2230 MOH     0.1166 ****
13684 HC2   -27.325988    4.759685  -17.659851 H    2230 MOH     0.0372 ****
13685 HC3   -27.036736    6.520868  -17.570755 H    2230 MOH     0.0372 ****
13686 O1    -26.256735    5.582305  -19.163867 O    2230 MOH    -0.6497 ****
13687 HO1   -25.446713    5.923193  -18.777079 H    2230 MOH     0.4215 ****
13688 HC1   -19.100479    5.477386  -10.646766 H    2231 MOH     0.0372 ****
13689 C1    -19.931863    6.160793  -10.816471 C    2231 MOH     0.1166 ****
13690 HC2   -20.853892    5.700697  -10.459382 H    2231 MOH     0.0372 ****
13691 HC3   -20.002300    6.348996  -11.887738 H    2231 MOH     0.0372 ****
13692 O1    -19.603928    7.381456  -10.164519 O    2231 MOH    -0.6497 ****
13693 HO1   -18.990782    7.184272   -9.452462 H    2231 MOH     0.4215 ****
13694 HC1   -26.593908    7.706830   -2.163606 H    2232 MOH     0.0372 ****
13695 C1    -27.485337    8.333491   -2.195425 C    2232 MOH     0.1166 ****
13696 HC2   -28.373879    7.702747   -2.235731 H    2232 MOH     0.0372 ****
13697 HC3   -27.476099    8.951579   -3.093451 H    2232 MOH     0.0372 ****
13698 O1    -27.474945    9.181014   -1.073954 O    2232 MOH    -0.6497 ****
13699 HO1   -26.719193    9.761135   -1.190627 H    2232 MOH     0.4215 ****
13700 HC1   -19.340657    8.303688  -14.624241 H    2233 MOH     0.0372 ****
13701 C1    -20.350442    7.982805  -14.880214 C    2233 MOH     0.1166 ****
13702 HC2   -21.047881    8.413507  -14.161086 H    2233 MOH     0.0372 ****
13703 HC3   -20.431849    6.896457  -14.845566 H    2233 MOH     0.0372 ****
13704 O1    -20.705513    8.442085  -16.152299 O    2233 MOH    -0.6497 ****
13705 HO1   -20.106800    8.034653  -16.781624 H    2233 MOH     0.4215 ****
13706 HC1   -24.936913    8.968725   -3.577112 H    2234 MOH     0.0372 ****
13707 C1    -24.712324   10.034661   -3.526908 C    2234 MOH     0.1166 ****
13708 HC2   -25.071435   10.582531   -4.398063 H    2234 MOH     0.0372 ****
13709 HC3   -23.626328   10.081202   -3.599032 H    2234 MOH     0.0372 ****
13710 O1    -25.073167   10.632745   -2.260479 O    2234 MOH    -0.6497 ****
13711 HO1   -25.145336   11.581514   -2.386344 H    2234 MOH     0.4215 ****
13712 HC1   -25.850281   -4.482240  -12.209472 H    2235 MOH     0.0372 ****
13713 C1    -25.268889   -3.724939  -11.682677 C    2235 MOH     0.1166 ****
13714 HC2   -24.215225   -3.969072  -11.819856 H    2235 MOH     0.0372 ****
13715 HC3   -25.498675   -3.714325  -10.617774 H    2235 MOH     0.0372 ****
13716 O1    -25.397061   -2.464677  -12.234927 O    2235 MOH    -0.6497 ****
13717 HO1   -24.598585   -1.988251  -11.993804 H    2235 MOH     0.4215 ****
13718 HC1   -23.537416   15.412108  -13.350035 H    2236 MOH     0.0372 ****
13719 C1    -24.029895   15.848525  -14.219069 C    2236 MOH     0.1166 ****
13720 HC2   -24.972131   16.335974  -13.968753 H    2236 MOH     0.0372 ****
13721 HC3   -24.282197   15.014066  -14.873850 H    2236 MOH     0.0372 ****
13722 O1    -23.192160   16.773616  -14.919105 O    2236 MOH    -0.6497 ****
13723 HO1   -23.733137   17.473353  -15.291043 H    2236 MOH     0.4215 ****
13724 HC1   -25.629733   -4.804756  -16.872134 H    2237 MOH     0.0372 ****
13725 C1    -25.662642   -3.719632  -16.971129 C    2237 MOH     0.1166 ****
13726 HC2   -25.217505   -3.250555  -16.093609 H    2237 MOH     0.0372 ****
13727 HC3   -26.700140   -3.393850  -17.046082 H    2237 MOH     0.0372 ****
13728 O1    -24.976750   -3.342411  -18.136441 O    2237 MOH    -0.6497 ****
13729 HO1   -24.875136   -2.389151  -18.096136 H    2237 MOH     0.4215 ****
13730 HC1   -17.196378    4.012182  -15.689144 H    2238 MOH     0.0372 ****
13731 C1    -18.102240    4.336740  -16.200382 C    2238 MOH     0.1166 ****
13732 HC2   -18.987896    3.944005  -15.701165 H    2238 MOH     0.0372 ****
13733 HC3   -18.094735    3.988504  -17.233465 H    2238 MOH     0.0372 ****
13734 O1    -18.195194    5.728867  -16.186240 O    2238 MOH    -0.6497 ****
13735 HO1   -17.924994    6.014232  -15.310135 H    2238 MOH     0.4215 ****
13736 HC1   -24.662094    8.575990  -13.704295 H    2239 MOH     0.0372 ****
13737 C1    -23.998719    7.754186  -13.434888 C    2239 MOH     0.1166 ****
13738 HC2   -22.982582    8.140389  -13.357106 H    2239 MOH     0.0372 ****
13739 HC3   -24.012575    6.971574  -14.193613 H    2239 MOH     0.0372 ****
13740 O1    -24.376883    7.327159  -12.147953 O    2239 MOH    -0.6497 ****
13741 HO1   -24.323189    8.096298  -11.576611 H    2239 MOH     0.4215 ****
13742 HC1   -20.882182   14.775240   -9.600955 H    2240 MOH     0.0372 ****
13743 C1    -21.221664   14.029371  -10.320082 C    2240 MOH     0.1166 ****
13744 HC2   -21.728000   13.192054   -9.838543 H    2240 MOH     0.0372 ****
13745 HC3   -20.334854   13.632553  -10.815057 H    2240 MOH     0.0372 ****
13746 O1    -22.062863   14.649908  -11.274677 O    2240 MOH    -0.6497 ****
13747 HO1   -21.533433   15.334949  -11.690455 H    2240 MOH     0.4215 ****
13748 HC1   -27.513627   12.271454  -15.438121 H    2241 MOH     0.0372 ****
13749 C1    -26.857180   12.547021  -14.612928 C    2241 MOH     0.1166 ****
13750 HC2   -27.403930   12.511095  -13.669647 H    2241 MOH     0.0372 ****
13751 HC3   -26.510770   13.569683  -14.763541 H    2241 MOH     0.0372 ****
13752 O1    -25.738275   11.675003  -14.547874 O    2241 MOH    -0.6497 ****
13753 HO1   -25.133212   12.001602  -13.877537 H    2241 MOH     0.4215 ****
13754 HC1   -23.737179   16.986313   -7.670553 H    2242 MOH     0.0372 ****
13755 C1    -24.048948   16.567450   -6.713131 C    2242 MOH     0.1166 ****
13756 HC2   -24.576069   17.313728   -6.120575 H    2242 MOH     0.0372 ****
13757 HC3   -23.156365   16.233912   -6.184922 H    2242 MOH     0.0372 ****
13758 O1    -24.863589   15.453341   -6.940112 O    2242 MOH    -0.6497 ****
13759 HO1   -25.549481   15.694616   -7.565901 H    2242 MOH     0.4215 ****
13760 HC1   -28.899845   13.910571   -8.878292 H    2243 MOH     0.0372 ****
13761 C1    -28.317876   14.153070   -9.767832 C    2243 MOH     0.1166 ****
13762 HC2   -28.354249   13.331266  -10.482717 H    2243 MOH     0.0372 ****
13763 HC3   -27.290770   14.296365   -9.430542 H    2243 MOH     0.0372 ****
13764 O1    -28.783798   15.397411  -10.299576 O    2243 MOH    -0.6497 ****
13765 HO1   -28.368105   16.074695   -9.761468 H    2243 MOH     0.4215 ****
13766 HC1   -29.496248   -0.035191  -21.585000 H    2244 MOH     0.0372 ****
13767 C1    -30.232947    0.310595  -20.860216 C    2244 MOH     0.1166 ****
13768 HC2   -30.503724   -0.497328  -20.179272 H    2244 MOH     0.0372 ****
13769 HC3   -31.141696    0.610249  -21.380647 H    2244 MOH     0.0372 ****
13770 O1    -29.793006    1.392045  -20.066135 O    2244 MOH    -0.6497 ****
13771 HO1   -28.845574    1.323459  -19.930371 H    2244 MOH     0.4215 ****
13772 HC1   -30.659031   -2.285864  -15.822787 H    2245 MOH     0.0372 ****
13773 C1    -29.623842   -1.981719  -15.979058 C    2245 MOH     0.1166 ****
13774 HC2   -29.034945   -2.884356  -16.146642 H    2245 MOH     0.0372 ****
13775 HC3   -29.250874   -1.424868  -15.120630 H    2245 MOH     0.0372 ****
13776 O1    -29.626152   -1.250138  -17.155684 O    2245 MOH    -0.6497 ****
13777 HO1   -28.988757   -0.541011  -17.046082 H    2245 MOH     0.4215 ****
13778 HC1   -17.596481    2.906238  -11.252049 H    2246 MOH     0.0372 ****
13779 C1    -17.212543    3.503097  -12.079364 C    2246 MOH     0.1166 ****
13780 HC2   -16.524919    2.885825  -12.657777 H    2246 MOH     0.0372 ****
13781 HC3   -16.711403    4.364909  -11.637422 H    2246 MOH     0.0372 ****
13782 O1    -18.277755    3.942780  -12.866374 O    2246 MOH    -0.6497 ****
13783 HO1   -18.807185    3.186704  -13.128003 H    2246 MOH     0.4215 ****
13784 HC1   -27.130266   11.902397   -6.651612 H    2247 MOH     0.0372 ****
13785 C1    -27.066758   10.979348   -7.227904 C    2247 MOH     0.1166 ****
13786 HC2   -26.035033   10.775224   -7.513576 H    2247 MOH     0.0372 ****
13787 HC3   -27.683945   11.091208   -8.118859 H    2247 MOH     0.0372 ****
13788 O1    -27.584641    9.926067   -6.462815 O    2247 MOH    -0.6497 ****
13789 HO1   -27.334648    9.101406   -6.887079 H    2247 MOH     0.4215 ****
13790 HC1   -17.704446    8.362884  -12.516356 H    2248 MOH     0.0372 ****
13791 C1    -17.064164    7.487600  -12.407461 C    2248 MOH     0.1166 ****
13792 HC2   -17.214276    7.086700  -11.404784 H    2248 MOH     0.0372 ****
13793 HC3   -16.025511    7.800318  -12.513527 H    2248 MOH     0.0372 ****
13794 O1    -17.443484    6.545771  -13.410846 O    2248 MOH    -0.6497 ****
13795 HO1   -17.514498    5.672528  -13.018402 H    2248 MOH     0.4215 ****
13796 HC1   -19.568710   10.576407   -8.095524 H    2249 MOH     0.0372 ****
13797 C1    -18.710190   10.938115   -8.661210 C    2249 MOH     0.1166 ****
13798 HC2   -19.058332   11.457407   -9.553579 H    2249 MOH     0.0372 ****
13799 HC3   -18.080878   10.097532   -8.954659 H    2249 MOH     0.0372 ****
13800 O1    -17.960789   11.827688   -7.865715 O    2249 MOH    -0.6497 ****
13801 HO1   -17.793358   11.409233   -7.017894 H    2249 MOH     0.4215 ****
13802 HC1   -18.769657   11.897498  -18.027546 H    2250 MOH     0.0372 ****
13803 C1    -19.216526   12.311462  -18.931229 C    2250 MOH     0.1166 ****
13804 HC2   -20.244210   12.630304  -18.759402 H    2250 MOH     0.0372 ****
13805 HC3   -19.185927   11.539056  -19.700561 H    2250 MOH     0.0372 ****
13806 O1    -18.405926   13.375765  -19.319430 O    2250 MOH    -0.6497 ****
13807 HO1   -18.224061   13.922001  -18.551512 H    2250 MOH     0.4215 ****
13808 HC1   -26.987084   14.724618   -2.794345 H    2251 MOH     0.0372 ****
13809 C1    -26.549452   13.821164   -3.219316 C    2251 MOH     0.1166 ****
13810 HC2   -26.305810   14.016307   -4.263006 H    2251 MOH     0.0372 ****
13811 HC3   -27.254974   12.994870   -3.125978 H    2251 MOH     0.0372 ****
13812 O1    -25.413227   13.523551   -2.471904 O    2251 MOH    -0.6497 ****
13813 HO1   -24.785647   14.249417   -2.519987 H    2251 MOH     0.4215 ****
13814 HC1   -25.895891   -6.358141  -13.709245 H    2252 MOH     0.0372 ****
13815 C1    -25.058156   -6.129930  -14.368976 C    2252 MOH     0.1166 ****
13816 HC2   -24.700776   -5.128497  -14.133509 H    2252 MOH     0.0372 ****
13817 HC3   -25.408608   -6.174837  -15.399937 H    2252 MOH     0.0372 ****
13818 O1    -23.977357   -7.071759  -14.164622 O    2252 MOH    -0.6497 ****
13819 HO1   -23.144240   -6.683515  -14.442515 H    2252 MOH     0.4215 ****
13820 HC1   -25.006195   12.510687   -6.596458 H    2253 MOH     0.0372 ****
13821 C1    -24.080702   12.810341   -6.102898 C    2253 MOH     0.1166 ****
13822 HC2   -23.636720   11.956286   -5.590952 H    2253 MOH     0.0372 ****
13823 HC3   -24.326654   13.562335   -5.353364 H    2253 MOH     0.0372 ****
13824 O1    -23.198511   13.309629   -7.128909 O    2253 MOH    -0.6497 ****
13825 HO1   -23.389037   14.247784   -7.203863 H    2253 MOH     0.4215 ****
13826 HC1   -26.589289   16.379656  -11.248514 H    2254 MOH     0.0372 ****
13827 C1    -25.643589   16.722585  -10.828492 C    2254 MOH     0.1166 ****
13828 HC2   -25.757327   17.697073  -10.352609 H    2254 MOH     0.0372 ****
13829 HC3   -24.913819   16.836078  -11.630351 H    2254 MOH     0.0372 ****
13830 O1    -25.201917   15.800352   -9.856220 O    2254 MOH    -0.6497 ****
13831 HO1   -24.370532   15.412108  -10.138356 H    2254 MOH     0.4215 ****
13832 HC1   -26.671273    8.313895  -16.177755 H    2255 MOH     0.0372 ****
13833 C1    -25.889541    8.987096  -16.529187 C    2255 MOH     0.1166 ****
13834 HC2   -25.330088    8.552312  -17.357209 H    2255 MOH     0.0372 ****
13835 HC3   -25.204226    9.192037  -15.707529 H    2255 MOH     0.0372 ****
13836 O1    -26.463427   10.186530  -16.974664 O    2255 MOH    -0.6497 ****
13837 HO1   -26.268282   10.829929  -16.288771 H    2255 MOH     0.4215 ****
13838 HC1   -27.272987   20.513823  -11.814906 H    2256 MOH     0.0372 ****
13839 C1    -28.073772   20.119864  -11.189117 C    2256 MOH     0.1166 ****
13840 HC2   -28.639575   19.389508  -11.768237 H    2256 MOH     0.0372 ****
13841 HC3   -28.746385   20.896760  -10.827785 H    2256 MOH     0.0372 ****
13842 O1    -27.576674   19.378893  -10.144720 O    2256 MOH    -0.6497 ****
13843 HO1   -27.032232   19.974936   -9.625704 H    2256 MOH     0.4215 ****
13844 HC1   -15.163643   21.752857   -7.308515 H    2257 MOH     0.0372 ****
13845 C1    -15.102444   22.532611   -6.550496 C    2257 MOH     0.1166 ****
13846 HC2   -14.742177   22.086804   -5.622772 H    2257 MOH     0.0372 ****
13847 HC3   -16.095486   22.958006   -6.404832 H    2257 MOH     0.0372 ****
13848 O1    -14.231222   23.555273   -6.978296 O    2257 MOH    -0.6497 ****
13849 HO1   -13.344412   23.195198   -7.044764 H    2257 MOH     0.4215 ****
13850 HC1    -8.905166   26.502009  -13.089112 H    2258 MOH     0.0372 ****
13851 C1     -8.471576   26.695111  -12.108355 C    2258 MOH     0.1166 ****
13852 HC2    -8.185787   27.745942  -12.057444 H    2258 MOH     0.0372 ****
13853 HC3    -7.583611   26.075798  -11.981783 H    2258 MOH     0.0372 ****
13854 O1     -9.425936   26.380351  -11.100728 O    2258 MOH    -0.6497 ****
13855 HO1    -9.225018   25.488737  -10.807986 H    2258 MOH     0.4215 ****
13856 HC1   -15.542385   15.648320  -20.721623 H    2259 MOH     0.0372 ****
13857 C1    -15.729446   14.662401  -20.296652 C    2259 MOH     0.1166 ****
13858 HC2   -16.121467   14.757114  -19.284075 H    2259 MOH     0.0372 ****
13859 HC3   -14.772199   14.145966  -20.228063 H    2259 MOH     0.0372 ****
13860 O1    -16.570645   13.858560  -21.145887 O    2259 MOH    -0.6497 ****
13861 HO1   -17.286560   13.512365  -20.608486 H    2259 MOH     0.4215 ****
13862 HC1   -12.911977   16.120255  -14.084719 H    2260 MOH     0.0372 ****
13863 C1    -13.760682   16.555040  -13.556510 C    2260 MOH     0.1166 ****
13864 HC2   -13.896936   17.582192  -13.894507 H    2260 MOH     0.0372 ****
13865 HC3   -13.596137   16.542792  -12.478879 H    2260 MOH     0.0372 ****
13866 O1    -14.926352   15.856935  -13.890264 O    2260 MOH    -0.6497 ****
13867 HO1   -14.899216   15.056360  -13.360641 H    2260 MOH     0.4215 ****
13868 HC1    -4.835424   24.890653  -17.704398 H    2261 MOH     0.0372 ****
13869 C1     -5.029991   25.632032  -16.929409 C    2261 MOH     0.1166 ****
13870 HC2    -6.094047   25.674082  -16.696771 H    2261 MOH     0.0372 ****
13871 HC3    -4.728614   26.620401  -17.276599 H    2261 MOH     0.0372 ****
13872 O1     -4.360265   25.301759  -15.718135 O    2261 MOH    -0.6497 ****
13873 HO1    -4.577926   24.407287  -15.445899 H    2261 MOH     0.4215 ****
13874 HC1   -14.017602   23.196015  -23.698543 H    2262 MOH     0.0372 ****
13875 C1    -14.809727   22.663659  -23.172455 C    2262 MOH     0.1166 ****
13876 HC2   -14.782592   22.921263  -22.113916 H    2262 MOH     0.0372 ****
13877 HC3   -14.644027   21.596089  -23.314584 H    2262 MOH     0.0372 ****
13878 O1    -16.038328   23.079255  -23.728241 O    2262 MOH    -0.6497 ****
13879 HO1   -16.732881   22.720405  -23.170334 H    2262 MOH     0.4215 ****
13880 HC1    -9.952479   29.254827  -16.175634 H    2263 MOH     0.0372 ****
13881 C1     -9.903982   28.167254  -16.226545 C    2263 MOH     0.1166 ****
13882 HC2   -10.282146   27.812486  -17.184675 H    2263 MOH     0.0372 ****
13883 HC3   -10.510777   27.720630  -15.438828 H    2263 MOH     0.0372 ****
13884 O1     -8.567416   27.732878  -16.153006 O    2263 MOH    -0.6497 ****
13885 HO1    -8.599748   26.773494  -16.131793 H    2263 MOH     0.4215 ****
13886 HC1   -10.755573   23.673257  -23.253772 H    2264 MOH     0.0372 ****
13887 C1    -10.556965   24.633865  -22.779304 C    2264 MOH     0.1166 ****
13888 HC2    -9.492331   24.851053  -22.862742 H    2264 MOH     0.0372 ****
13889 HC3   -10.786173   24.598756  -21.714401 H    2264 MOH     0.0372 ****
13890 O1    -11.350244   25.629583  -23.430549 O    2264 MOH    -0.6497 ****
13891 HO1   -11.302901   26.405663  -22.866985 H    2264 MOH     0.4215 ****
13892 HC1   -25.180670   22.386458  -14.808089 H    2265 MOH     0.0372 ****
13893 C1    -24.266147   22.692644  -15.315792 C    2265 MOH     0.1166 ****
13894 HC2   -23.670899   23.347066  -14.678689 H    2265 MOH     0.0372 ****
13895 HC3   -24.541543   23.238881  -16.218060 H    2265 MOH     0.0372 ****
13896 O1    -23.564089   21.553223  -15.713893 O    2265 MOH    -0.6497 ****
13897 HO1   -22.629359   21.752040  -15.624090 H    2265 MOH     0.4215 ****
13898 HC1   -11.914315   18.205996  -18.241800 H    2266 MOH     0.0372 ****
13899 C1    -11.866973   18.929412  -17.427213 C    2266 MOH     0.1166 ****
13900 HC2   -12.660252   19.656910  -17.598332 H    2266 MOH     0.0372 ****
13901 HC3   -10.906262   19.442988  -17.473882 H    2266 MOH     0.0372 ****
13902 O1    -12.052302   18.287645  -16.133207 O    2266 MOH    -0.6497 ****
13903 HO1   -12.243982   18.963296  -15.477719 H    2266 MOH     0.4215 ****
13904 HC1    -5.156431   26.920464  -13.922791 H    2267 MOH     0.0372 ****
13905 C1     -5.073870   27.860251  -13.376905 C    2267 MOH     0.1166 ****
13906 HC2    -5.900635   28.515898  -13.649848 H    2267 MOH     0.0372 ****
13907 HC3    -4.116623   28.322388  -13.621564 H    2267 MOH     0.0372 ****
13908 O1     -5.114861   27.502218  -12.035523 O    2267 MOH    -0.6497 ****
13909 HO1    -4.890849   28.245229  -11.471252 H    2267 MOH     0.4215 ****
13910 HC1   -17.174554   20.890637   -5.229621 H    2268 MOH     0.0372 ****
13911 C1    -16.874909   19.843480   -5.244470 C    2268 MOH     0.1166 ****
13912 HC2   -16.240978   19.654869   -6.111383 H    2268 MOH     0.0372 ****
13913 HC3   -17.742667   19.189466   -5.323666 H    2268 MOH     0.0372 ****
13914 O1    -16.169964   19.532394   -4.050874 O    2268 MOH    -0.6497 ****
13915 HO1   -15.735797   18.684055   -4.169668 H    2268 MOH     0.4215 ****
13916 HC1   -10.368749   15.542992  -17.637223 H    2269 MOH     0.0372 ****
13917 C1    -11.048867   14.974302  -17.002948 C    2269 MOH     0.1166 ****
13918 HC2   -10.694374   15.011453  -15.972694 H    2269 MOH     0.0372 ****
13919 HC3   -11.103716   13.937760  -17.334582 H    2269 MOH     0.0372 ****
13920 O1    -12.281510   15.597289  -17.084973 O    2269 MOH    -0.6497 ****
13921 HO1   -12.179319   16.490128  -16.749097 H    2269 MOH     0.4215 ****
13922 HC1   -16.500786   22.006379  -12.653535 H    2270 MOH     0.0372 ****
13923 C1    -16.641082   21.852061  -13.722680 C    2270 MOH     0.1166 ****
13924 HC2   -16.837381   22.806546  -14.211998 H    2270 MOH     0.0372 ****
13925 HC3   -17.475353   21.173144  -13.898750 H    2270 MOH     0.0372 ****
13926 O1    -15.465597   21.297660  -14.274223 O    2270 MOH    -0.6497 ****
13927 HO1   -14.818965   21.196823  -13.572066 H    2270 MOH     0.4215 ****
13928 HC1   -19.044591   21.800214  -20.022295 H    2271 MOH     0.0372 ****
13929 C1    -19.205672   20.787350  -19.653892 C    2271 MOH     0.1166 ****
13930 HC2   -19.956805   20.832257  -18.866175 H    2271 MOH     0.0372 ****
13931 HC3   -18.280757   20.386858  -19.238820 H    2271 MOH     0.0372 ****
13932 O1    -19.657160   19.940643  -20.710309 O    2271 MOH    -0.6497 ****
13933 HO1   -19.252437   19.082505  -20.560403 H    2271 MOH     0.4215 ****
13934 HC1   -10.039082   15.917356  -12.408169 H    2272 MOH     0.0372 ****
13935 C1    -10.205359   16.004313  -11.334073 C    2272 MOH     0.1166 ****
13936 HC2   -10.133190   17.060451  -11.074565 H    2272 MOH     0.0372 ****
13937 HC3    -9.418430   15.450320  -10.821421 H    2272 MOH     0.0372 ****
13938 O1    -11.530955   15.485429  -11.100021 O    2272 MOH    -0.6497 ****
13939 HO1   -11.842147   15.834073  -10.261392 H    2272 MOH     0.4215 ****
13940 HC1   -10.445536   22.055369  -13.589744 H    2273 MOH     0.0372 ****
13941 C1    -10.462280   21.048220  -14.007644 C    2273 MOH     0.1166 ****
13942 HC2    -9.960562   20.389716  -13.299830 H    2273 MOH     0.0372 ****
13943 HC3    -9.910910   21.019643  -14.948096 H    2273 MOH     0.0372 ****
13944 O1    -11.805196   20.612619  -14.156844 O    2273 MOH    -0.6497 ****
13945 HO1   -12.297099   20.873490  -13.374076 H    2273 MOH     0.4215 ****
13946 HC1   -16.830453   17.518097  -12.051080 H    2274 MOH     0.0372 ****
13947 C1    -17.016360   18.103934  -12.951227 C    2274 MOH     0.1166 ****
13948 HC2   -16.998462   17.480130  -13.845010 H    2274 MOH     0.0372 ****
13949 HC3   -16.268691   18.889403  -13.060121 H    2274 MOH     0.0372 ****
13950 O1    -18.258818   18.692219  -12.821826 O    2274 MOH    -0.6497 ****
13951 HO1   -18.557308   18.802855  -13.727630 H    2274 MOH     0.4215 ****
13952 HC1   -15.645730   21.093128  -10.631916 H    2275 MOH     0.0372 ****
13953 C1    -14.891711   20.339501  -10.859605 C    2275 MOH     0.1166 ****
13954 HC2   -15.377840   19.449928  -11.259120 H    2275 MOH     0.0372 ****
13955 HC3   -14.402695   20.050053   -9.929759 H    2275 MOH     0.0372 ****
13956 O1    -13.957558   20.881655  -11.804299 O    2275 MOH    -0.6497 ****
13957 HO1   -13.741052   21.779393  -11.544791 H    2275 MOH     0.4215 ****
13958 HC1   -19.709121   14.463584  -13.366298 H    2276 MOH     0.0372 ****
13959 C1    -20.116153   15.464200  -13.511255 C    2276 MOH     0.1166 ****
13960 HC2   -21.161735   15.418476  -13.816725 H    2276 MOH     0.0372 ****
13961 HC3   -19.559588   15.921847  -14.327964 H    2276 MOH     0.0372 ****
13962 O1    -19.961424   16.288045  -12.354429 O    2276 MOH    -0.6497 ****
13963 HO1   -19.678522   17.168229  -12.614644 H    2276 MOH     0.4215 ****
13964 HC1   -20.303215   18.868991  -11.143862 H    2277 MOH     0.0372 ****
13965 C1    -20.214880   19.854911  -10.687778 C    2277 MOH     0.1166 ****
13966 HC2   -20.815902   19.886754   -9.779853 H    2277 MOH     0.0372 ****
13967 HC3   -20.567064   20.590166  -11.411148 H    2277 MOH     0.0372 ****
13968 O1    -18.874850   20.058626  -10.380186 O    2277 MOH    -0.6497 ****
13969 HO1   -18.389876   19.591999  -11.063959 H    2277 MOH     0.4215 ****
13970 HC1   -18.339647   14.031657  -10.329982 H    2278 MOH     0.0372 ****
13971 C1    -17.263466   14.039822  -10.499687 C    2278 MOH     0.1166 ****
13972 HC2   -16.843155   14.900001   -9.979964 H    2278 MOH     0.0372 ****
13973 HC3   -17.059661   14.100243  -11.568833 H    2278 MOH     0.0372 ****
13974 O1    -16.669950   12.895094   -9.999056 O    2278 MOH    -0.6497 ****
13975 HO1   -17.131830   12.633815   -9.200025 H    2278 MOH     0.4215 ****
13976 HC1   -17.030216   24.957606  -19.146896 H    2279 MOH     0.0372 ****
13977 C1    -17.015782   25.665100  -19.976333 C    2279 MOH     0.1166 ****
13978 HC2   -18.006515   26.096210  -20.117754 H    2279 MOH     0.0372 ****
13979 HC3   -16.676878   25.171936  -20.887086 H    2279 MOH     0.0372 ****
13980 O1    -16.138787   26.716748  -19.669448 O    2279 MOH    -0.6497 ****
13981 HO1   -15.942488   26.723688  -18.729703 H    2279 MOH     0.4215 ****
13982 HC1   -10.898756   21.122930   -5.817226 H    2280 MOH     0.0372 ****
13983 C1    -10.823701   22.164779   -6.126939 C    2280 MOH     0.1166 ****
13984 HC2    -9.785048   22.389316   -6.370184 H    2280 MOH     0.0372 ****
13985 HC3   -11.185700   22.766129   -5.291846 H    2280 MOH     0.0372 ****
13986 O1    -11.711666   22.322363   -7.203156 O    2280 MOH    -0.6497 ****
13987 HO1   -11.344471   21.801847   -7.920869 H    2280 MOH     0.4215 ****
13988 HC1   -21.173859   17.210278   -5.268512 H    2281 MOH     0.0372 ****
13989 C1    -20.181394   17.231099   -5.718939 C    2281 MOH     0.1166 ****
13990 HC2   -19.658315   18.142309   -5.429025 H    2281 MOH     0.0372 ****
13991 HC3   -20.241438   17.175577   -6.805055 H    2281 MOH     0.0372 ****
13992 O1    -19.446427   16.166387   -5.270633 O    2281 MOH    -0.6497 ****
13993 HO1   -19.893296   15.370303   -5.566203 H    2281 MOH     0.4215 ****
13994 HC1   -11.560400   23.919022  -17.135885 H    2282 MOH     0.0372 ****
13995 C1    -11.599660   22.849412  -17.340946 C    2282 MOH     0.1166 ****
13996 HC2   -12.377928   22.421159  -16.709499 H    2282 MOH     0.0372 ****
13997 HC3   -10.630866   22.412994  -17.096994 H    2282 MOH     0.0372 ****
13998 O1    -11.888335   22.557514  -18.709197 O    2282 MOH    -0.6497 ****
13999 HO1   -11.458786   21.743059  -18.981433 H    2282 MOH     0.4215 ****
14000 HC1    -7.398859   22.599156  -19.382363 H    2283 MOH     0.0372 ****
14001 C1     -7.921361   23.528329  -19.154674 C    2283 MOH     0.1166 ****
14002 HC2    -8.953663   23.315223  -18.876074 H    2283 MOH     0.0372 ****
14003 HC3    -7.880946   24.174586  -20.030780 H    2283 MOH     0.0372 ****
14004 O1     -7.233737   24.091711  -18.088357 O    2283 MOH    -0.6497 ****
14005 HO1    -6.771279   23.376460  -17.645709 H    2283 MOH     0.4215 ****
14006 HC1   -13.998550   17.813261   -9.742376 H    2284 MOH     0.0372 ****
14007 C1    -13.747403   17.292744   -8.818187 C    2284 MOH     0.1166 ****
14008 HC2   -14.414242   16.439097   -8.697272 H    2284 MOH     0.0372 ****
14009 HC3   -13.870378   17.962680   -7.967538 H    2284 MOH     0.0372 ****
14010 O1    -12.407373   16.862042   -8.915061 O    2284 MOH    -0.6497 ****
14011 HO1   -12.217424   16.306416   -8.156336 H    2284 MOH     0.4215 ****
14012 HC1   -12.525729   24.743684  -19.763493 H    2285 MOH     0.0372 ****
14013 C1    -13.462769   24.999655  -20.256347 C    2285 MOH     0.1166 ****
14014 HC2   -14.301081   24.667750  -19.643285 H    2285 MOH     0.0372 ****
14015 HC3   -13.481244   24.500776  -21.225083 H    2285 MOH     0.0372 ****
14016 O1    -13.493368   26.383209  -20.473429 O    2285 MOH    -0.6497 ****
14017 HO1   -14.409623   26.624484  -20.625457 H    2285 MOH     0.4215 ****
14018 HC1   -15.855308   20.033723  -21.471156 H    2286 MOH     0.0372 ****
14019 C1    -15.549890   19.053519  -21.838145 C    2286 MOH     0.1166 ****
14020 HC2   -14.600726   19.133128  -22.367768 H    2286 MOH     0.0372 ****
14021 HC3   -16.316611   18.661193  -22.504946 H    2286 MOH     0.0372 ****
14022 O1    -15.396315   18.132919  -20.764049 O    2286 MOH    -0.6497 ****
14023 HO1   -14.547033   17.698951  -20.872237 H    2286 MOH     0.4215 ****
14024 HC1   -10.014256   17.385417  -14.798190 H    2287 MOH     0.0372 ****
14025 C1     -9.143034   17.888787  -15.217504 C    2287 MOH     0.1166 ****
14026 HC2    -9.440947   18.837964  -15.660860 H    2287 MOH     0.0372 ****
14027 HC3    -8.704248   17.277231  -16.006635 H    2287 MOH     0.0372 ****
14028 O1     -8.174240   18.163946  -14.231797 O    2287 MOH    -0.6497 ****
14029 HO1    -7.744114   17.325812  -14.048656 H    2287 MOH     0.4215 ****
14030 HC1   -20.982756   18.971053  -15.635404 H    2288 MOH     0.0372 ****
14031 C1    -20.125968   18.713040  -16.259072 C    2288 MOH     0.1166 ****
14032 HC2   -19.940062   19.506267  -16.982442 H    2288 MOH     0.0372 ****
14033 HC3   -20.371920   17.809178  -16.816272 H    2288 MOH     0.0372 ****
14034 O1    -18.962608   18.522388  -15.457920 O    2288 MOH    -0.6497 ****
14035 HO1   -18.266323   18.174561  -16.019363 H    2288 MOH     0.4215 ****
14036 HC1   -14.928084   18.630982  -16.452112 H    2289 MOH     0.0372 ****
14037 C1    -15.426337   17.855310  -17.031940 C    2289 MOH     0.1166 ****
14038 HC2   -14.699453   17.109849  -17.354381 H    2289 MOH     0.0372 ****
14039 HC3   -15.888795   18.329287  -17.898146 H    2289 MOH     0.0372 ****
14040 O1    -16.401482   17.224567  -16.235031 O    2289 MOH    -0.6497 ****
14041 HO1   -15.929787   16.855510  -15.485497 H    2289 MOH     0.4215 ****
14042 HC1   -11.587535   24.682855   -9.265079 H    2290 MOH     0.0372 ****
14043 C1    -12.209919   25.577327   -9.274271 C    2290 MOH     0.1166 ****
14044 HC2   -11.765937   26.364430   -8.664745 H    2290 MOH     0.0372 ****
14045 HC3   -13.181599   25.299310   -8.864857 H    2290 MOH     0.0372 ****
14046 O1    -12.389475   26.030074  -10.595854 O    2290 MOH    -0.6497 ****
14047 HO1   -11.532110   26.305642  -10.928901 H    2290 MOH     0.4215 ****
14048 HC1   -15.958654   24.862484  -11.424583 H    2291 MOH     0.0372 ****
14049 C1    -15.504857   25.741851  -10.967792 C    2291 MOH     0.1166 ****
14050 HC2   -14.667699   26.058652  -11.590046 H    2291 MOH     0.0372 ****
14051 HC3   -15.201171   25.492819   -9.950973 H    2291 MOH     0.0372 ****
14052 O1    -16.455175   26.739610  -11.003148 O    2291 MOH    -0.6497 ****
14053 HO1   -16.783110   26.795132  -11.904002 H    2291 MOH     0.4215 ****
14054 HC1    -8.595706   28.181543   -6.047743 H    2292 MOH     0.0372 ****
14055 C1     -8.848586   29.046213   -5.433974 C    2292 MOH     0.1166 ****
14056 HC2    -8.040873   29.229516   -4.726161 H    2292 MOH     0.0372 ****
14057 HC3    -9.766573   28.813511   -4.895159 H    2292 MOH     0.0372 ****
14058 O1     -9.040843   30.154607   -6.290281 O    2292 MOH    -0.6497 ****
14059 HO1    -9.726158   29.883530   -6.905464 H    2292 MOH     0.4215 ****
14060 HC1   -12.336359   20.922072   -9.581863 H    2293 MOH     0.0372 ****
14061 C1    -11.513634   20.231316   -9.767125 C    2293 MOH     0.1166 ****
14062 HC2   -11.238238   20.352565  -10.814350 H    2293 MOH     0.0372 ****
14063 HC3   -11.821939   19.191507   -9.660352 H    2293 MOH     0.0372 ****
14064 O1    -10.423597   20.541992   -8.882534 O    2293 MOH    -0.6497 ****
14065 HO1    -9.812761   19.801430   -8.869806 H    2293 MOH     0.4215 ****
14066 HC1   -16.589121   22.263575  -18.777079 H    2294 MOH     0.0372 ****
14067 C1    -15.661896   22.086804  -18.233314 C    2294 MOH     0.1166 ****
14068 HC2   -15.727714   21.162122  -17.659851 H    2294 MOH     0.0372 ****
14069 HC3   -15.438462   22.923305  -17.570755 H    2294 MOH     0.0372 ****
14070 O1    -14.658461   21.984742  -19.163867 O    2294 MOH    -0.6497 ****
14071 HO1   -13.848439   22.325629  -18.777079 H    2294 MOH     0.4215 ****
14072 HC1    -7.502205   21.879822  -10.646766 H    2295 MOH     0.0372 ****
14073 C1     -8.333589   22.563230  -10.816471 C    2295 MOH     0.1166 ****
14074 HC2    -9.255618   22.103134  -10.459382 H    2295 MOH     0.0372 ****
14075 HC3    -8.404026   22.751432  -11.887738 H    2295 MOH     0.0372 ****
14076 O1     -8.005654   23.783892  -10.164519 O    2295 MOH    -0.6497 ****
14077 HO1    -7.392508   23.586708   -9.452462 H    2295 MOH     0.4215 ****
14078 HC1   -14.995634   24.109266   -2.163606 H    2296 MOH     0.0372 ****
14079 C1    -15.887063   24.735927   -2.195425 C    2296 MOH     0.1166 ****
14080 HC2   -16.775605   24.105184   -2.235731 H    2296 MOH     0.0372 ****
14081 HC3   -15.877825   25.354015   -3.093451 H    2296 MOH     0.0372 ****
14082 O1    -15.876671   25.583451   -1.073954 O    2296 MOH    -0.6497 ****
14083 HO1   -15.120919   26.163571   -1.190627 H    2296 MOH     0.4215 ****
14084 HC1    -7.742382   24.706125  -14.624241 H    2297 MOH     0.0372 ****
14085 C1     -8.752168   24.385242  -14.880214 C    2297 MOH     0.1166 ****
14086 HC2    -9.449607   24.815944  -14.161086 H    2297 MOH     0.0372 ****
14087 HC3    -8.833574   23.298893  -14.845566 H    2297 MOH     0.0372 ****
14088 O1     -9.107238   24.844521  -16.152299 O    2297 MOH    -0.6497 ****
14089 HO1    -8.508526   24.437089  -16.781624 H    2297 MOH     0.4215 ****
14090 HC1   -13.338639   25.371162   -3.577112 H    2298 MOH     0.0372 ****
14091 C1    -13.114049   26.437098   -3.526908 C    2298 MOH     0.1166 ****
14092 HC2   -13.473161   26.984967   -4.398063 H    2298 MOH     0.0372 ****
14093 HC3   -12.028054   26.483638   -3.599032 H    2298 MOH     0.0372 ****
14094 O1    -13.474893   27.035182   -2.260479 O    2298 MOH    -0.6497 ****
14095 HO1   -13.547062   27.983951   -2.386344 H    2298 MOH     0.4215 ****
14096 HC1   -14.252007   11.920197  -12.209472 H    2299 MOH     0.0372 ****
14097 C1    -13.670615   12.677497  -11.682677 C    2299 MOH     0.1166 ****
14098 HC2   -12.616951   12.433365  -11.819856 H    2299 MOH     0.0372 ****
14099 HC3   -13.900400   12.688112  -10.617774 H    2299 MOH     0.0372 ****
14100 O1    -13.798787   13.937760  -12.234927 O    2299 MOH    -0.6497 ****
14101 HO1   -13.000311   14.414186  -11.993804 H    2299 MOH     0.4215 ****
14102 HC1   -19.096553   23.277256   -7.127495 H    2300 MOH     0.0372 ****
14103 C1    -18.751297   22.434223   -7.725000 C    2300 MOH     0.1166 ****
14104 HC2   -18.011134   21.902276   -7.126081 H    2300 MOH     0.0372 ****
14105 HC3   -18.309624   22.820018   -8.643532 H    2300 MOH     0.0372 ****
14106 O1    -19.803807   21.516481   -8.058755 O    2300 MOH    -0.6497 ****
14107 HO1   -19.524947   21.003313   -8.820309 H    2300 MOH     0.4215 ****
14108 HC1   -14.031459   11.597681  -16.872134 H    2301 MOH     0.0372 ****
14109 C1    -14.064368   12.682805  -16.971129 C    2301 MOH     0.1166 ****
14110 HC2   -13.619231   13.151882  -16.093609 H    2301 MOH     0.0372 ****
14111 HC3   -15.101866   13.008587  -17.046082 H    2301 MOH     0.0372 ****
14112 O1    -13.378476   13.060026  -18.136441 O    2301 MOH    -0.6497 ****
14113 HO1   -13.276862   14.013286  -18.096136 H    2301 MOH     0.4215 ****
14114 HC1    -5.598104   20.414619  -15.689144 H    2302 MOH     0.0372 ****
14115 C1     -6.503966   20.739176  -16.200382 C    2302 MOH     0.1166 ****
14116 HC2    -7.389621   20.346441  -15.701165 H    2302 MOH     0.0372 ****
14117 HC3    -6.496461   20.390941  -17.233465 H    2302 MOH     0.0372 ****
14118 O1     -6.596919   22.131303  -16.186240 O    2302 MOH    -0.6497 ****
14119 HO1    -6.326720   22.416669  -15.310135 H    2302 MOH     0.4215 ****
14120 HC1   -13.063820   24.978427  -13.704295 H    2303 MOH     0.0372 ****
14121 C1    -12.400444   24.156623  -13.434888 C    2303 MOH     0.1166 ****
14122 HC2   -11.384308   24.542826  -13.357106 H    2303 MOH     0.0372 ****
14123 HC3   -12.414301   23.374011  -14.193613 H    2303 MOH     0.0372 ****
14124 O1    -12.778609   23.729595  -12.147953 O    2303 MOH    -0.6497 ****
14125 HO1   -12.724915   24.498735  -11.576611 H    2303 MOH     0.4215 ****
14126 HC1   -18.577515   23.941476  -18.581918 H    2304 MOH     0.0372 ****
14127 C1    -19.207981   23.627941  -17.750360 C    2304 MOH     0.1166 ****
14128 HC2   -20.184281   23.315223  -18.120884 H    2304 MOH     0.0372 ****
14129 HC3   -19.378300   24.455052  -17.060224 H    2304 MOH     0.0372 ****
14130 O1    -18.605805   22.573844  -17.054567 O    2304 MOH    -0.6497 ****
14131 HO1   -19.256479   22.219485  -16.445041 H    2304 MOH     0.4215 ****
14132 HC1   -26.577280   18.606079  -15.385088 H    2305 MOH     0.0372 ****
14133 C1    -25.933535   19.390324  -15.781775 C    2305 MOH     0.1166 ****
14134 HC2   -25.899471   20.191715  -15.044263 H    2305 MOH     0.0372 ****
14135 HC3   -26.332484   19.830416  -16.696771 H    2305 MOH     0.0372 ****
14136 O1    -24.621795   18.925737  -16.012292 O    2305 MOH    -0.6497 ****
14137 HO1   -24.179545   19.712840  -16.337561 H    2305 MOH     0.4215 ****
14138 HC1   -19.807271   25.746750  -11.206794 H    2306 MOH     0.0372 ****
14139 C1    -19.644458   25.522622  -10.152498 C    2306 MOH     0.1166 ****
14140 HC2   -19.076923   24.595898  -10.060574 H    2306 MOH     0.0372 ****
14141 HC3   -20.628263   25.405046   -9.698536 H    2306 MOH     0.0372 ****
14142 O1    -18.951638   26.599172   -9.560650 O    2306 MOH    -0.6497 ****
14143 HO1   -18.113325   26.689803  -10.018855 H    2306 MOH     0.4215 ****
14144 HC1   -21.871876   19.680589   -6.447259 H    2307 MOH     0.0372 ****
14145 C1    -22.265051   20.115373   -5.528727 C    2307 MOH     0.1166 ****
14146 HC2   -22.449226   21.180085   -5.670148 H    2307 MOH     0.0372 ****
14147 HC3   -21.565880   19.971261   -4.704947 H    2307 MOH     0.0372 ****
14148 O1    -23.429567   19.454419   -5.199922 O    2307 MOH    -0.6497 ****
14149 HO1   -23.853919   19.903900   -4.465238 H    2307 MOH     0.4215 ****
14150 HC1   -17.897974   16.367245  -21.585000 H    2308 MOH     0.0372 ****
14151 C1    -18.634673   16.713032  -20.860216 C    2308 MOH     0.1166 ****
14152 HC2   -18.905450   15.905108  -20.179272 H    2308 MOH     0.0372 ****
14153 HC3   -19.543422   17.012686  -21.380647 H    2308 MOH     0.0372 ****
14154 O1    -18.194732   17.794481  -20.066135 O    2308 MOH    -0.6497 ****
14155 HO1   -17.247300   17.725896  -19.930371 H    2308 MOH     0.4215 ****
14156 HC1   -19.060757   14.116573  -15.822787 H    2309 MOH     0.0372 ****
14157 C1    -18.025568   14.420718  -15.979058 C    2309 MOH     0.1166 ****
14158 HC2   -17.436671   13.518081  -16.146642 H    2309 MOH     0.0372 ****
14159 HC3   -17.652600   14.977568  -15.120630 H    2309 MOH     0.0372 ****
14160 O1    -18.027877   15.152298  -17.155684 O    2309 MOH    -0.6497 ****
14161 HO1   -17.390483   15.861426  -17.046082 H    2309 MOH     0.4215 ****
14162 HC1    -5.998207   19.308674  -11.252049 H    2310 MOH     0.0372 ****
14163 C1     -5.614269   19.905533  -12.079364 C    2310 MOH     0.1166 ****
14164 HC2    -4.926645   19.288262  -12.657777 H    2310 MOH     0.0372 ****
14165 HC3    -5.113129   20.767346  -11.637422 H    2310 MOH     0.0372 ****
14166 O1     -6.679481   20.345217  -12.866374 O    2310 MOH    -0.6497 ****
14167 HO1    -7.208911   19.589141  -13.128003 H    2310 MOH     0.4215 ****
14168 HC1    -6.106172   24.765321  -12.516356 H    2311 MOH     0.0372 ****
14169 C1     -5.465890   23.890037  -12.407461 C    2311 MOH     0.1166 ****
14170 HC2    -5.616001   23.489137  -11.404784 H    2311 MOH     0.0372 ****
14171 HC3    -4.427237   24.202755  -12.513527 H    2311 MOH     0.0372 ****
14172 O1     -5.845209   22.948208  -13.410846 O    2311 MOH    -0.6497 ****
14173 HO1    -5.916224   22.074965  -13.018402 H    2311 MOH     0.4215 ****
14174 HC1    -7.970436   26.978843   -8.095524 H    2312 MOH     0.0372 ****
14175 C1     -7.111916   27.340551   -8.661210 C    2312 MOH     0.1166 ****
14176 HC2    -7.460058   27.859843   -9.553579 H    2312 MOH     0.0372 ****
14177 HC3    -6.482604   26.499968   -8.954659 H    2312 MOH     0.0372 ****
14178 O1     -6.362515   28.230124   -7.865715 O    2312 MOH    -0.6497 ****
14179 HO1    -6.195084   27.811670   -7.017894 H    2312 MOH     0.4215 ****
14180 HC1    -7.171383   28.299935  -18.027546 H    2313 MOH     0.0372 ****
14181 C1     -7.618252   28.713898  -18.931229 C    2313 MOH     0.1166 ****
14182 HC2    -8.645936   29.032740  -18.759402 H    2313 MOH     0.0372 ****
14183 HC3    -7.587653   27.941493  -19.700561 H    2313 MOH     0.0372 ****
14184 O1     -6.807652   29.778202  -19.319430 O    2313 MOH    -0.6497 ****
14185 HO1    -6.625787   30.324438  -18.551512 H    2313 MOH     0.4215 ****
14186 HC1   -22.339529   20.186408   -1.229518 H    2314 MOH     0.0372 ****
14187 C1    -21.445214   19.743867   -0.789697 C    2314 MOH     0.1166 ****
14188 HC2   -21.379396   20.016985    0.263185 H    2314 MOH     0.0372 ****
14189 HC3   -20.554940   20.113740   -1.298814 H    2314 MOH     0.0372 ****
14190 O1    -21.496598   18.331328   -0.905663 O    2314 MOH    -0.6497 ****
14191 HO1   -20.591313   18.023101   -0.817274 H    2314 MOH     0.4215 ****
14192 HC1   -18.608692   23.929229   -3.427205 H    2315 MOH     0.0372 ****
14193 C1    -19.019188   22.972703   -3.104058 C    2315 MOH     0.1166 ****
14194 HC2   -18.240342   22.210095   -3.082844 H    2315 MOH     0.0372 ****
14195 HC3   -19.804384   22.693869   -3.806215 H    2315 MOH     0.0372 ****
14196 O1    -19.615013   23.117223   -1.848236 O    2315 MOH    -0.6497 ****
14197 HO1   -18.994362   23.566296   -1.269823 H    2315 MOH     0.4215 ****
14198 HC1   -21.834348   19.036781  -19.160331 H    2316 MOH     0.0372 ****
14199 C1    -22.716539   19.620168  -18.899409 C    2316 MOH     0.1166 ****
14200 HC2   -22.412275   20.618743  -18.588282 H    2316 MOH     0.0372 ****
14201 HC3   -23.251743   19.130270  -18.086236 H    2316 MOH     0.0372 ****
14202 O1    -23.537531   19.675281  -20.066842 O    2316 MOH    -0.6497 ****
14203 HO1   -23.628175   18.786525  -20.419689 H    2316 MOH     0.4215 ****
14204 HC1   -14.297617   10.044296  -13.709245 H    2317 MOH     0.0372 ****
14205 C1    -13.459882   10.272507  -14.368976 C    2317 MOH     0.1166 ****
14206 HC2   -13.102502   11.273940  -14.133509 H    2317 MOH     0.0372 ****
14207 HC3   -13.810334   10.227599  -15.399937 H    2317 MOH     0.0372 ****
14208 O1    -12.379082    9.330678  -14.164622 O    2317 MOH    -0.6497 ****
14209 HO1   -11.545966    9.718922  -14.442515 H    2317 MOH     0.4215 ****
14210 HC1   -20.104029   20.899618  -14.093911 H    2318 MOH     0.0372 ****
14211 C1    -20.415798   21.943101  -14.129267 C    2318 MOH     0.1166 ****
14212 HC2   -19.609817   22.600380  -13.801169 H    2318 MOH     0.0372 ****
14213 HC3   -21.258730   22.066392  -13.450444 H    2318 MOH     0.0372 ****
14214 O1    -20.869018   22.289295  -15.423272 O    2318 MOH    -0.6497 ****
14215 HO1   -21.080328   23.225000  -15.393574 H    2318 MOH     0.4215 ****
14216 HC1   -24.378730   20.070466  -13.277203 H    2319 MOH     0.0372 ****
14217 C1    -23.607391   19.777343  -12.564439 C    2319 MOH     0.1166 ****
14218 HC2   -22.709611   19.520963  -13.127296 H    2319 MOH     0.0372 ****
14219 HC3   -23.937635   18.888995  -12.025624 H    2319 MOH     0.0372 ****
14220 O1    -23.347006   20.854711  -11.655807 O    2319 MOH    -0.6497 ****
14221 HO1   -24.013268   20.829808  -10.964964 H    2319 MOH     0.4215 ****
14222 HC1   -24.508057   20.681205   -7.394075 H    2320 MOH     0.0372 ****
14223 C1    -24.024815   20.530562   -8.359275 C    2320 MOH     0.1166 ****
14224 HC2   -23.569285   19.540968   -8.379074 H    2320 MOH     0.0372 ****
14225 HC3   -23.264444   21.299701   -8.497868 H    2320 MOH     0.0372 ****
14226 O1    -25.055962   20.579960   -9.345689 O    2320 MOH    -0.6497 ****
14227 HO1   -25.568649   21.380943   -9.215582 H    2320 MOH     0.4215 ****
14228 HC1   -15.072999   24.716331  -16.177755 H    2321 MOH     0.0372 ****
14229 C1    -14.291267   25.389533  -16.529187 C    2321 MOH     0.1166 ****
14230 HC2   -13.731814   24.954748  -17.357209 H    2321 MOH     0.0372 ****
14231 HC3   -13.605952   25.594473  -15.707529 H    2321 MOH     0.0372 ****
14232 O1    -14.865153   26.588966  -16.974664 O    2321 MOH    -0.6497 ****
14233 HO1   -14.670008   27.232365  -16.288771 H    2321 MOH     0.4215 ****
14234 HC1    -3.944110   32.050757  -20.721623 H    2322 MOH     0.0372 ****
14235 C1     -4.131172   31.064837  -20.296652 C    2322 MOH     0.1166 ****
14236 HC2    -4.523193   31.159551  -19.284075 H    2322 MOH     0.0372 ****
14237 HC3    -3.173925   30.548403  -20.228063 H    2322 MOH     0.0372 ****
14238 O1     -4.972371   30.260996  -21.145887 O    2322 MOH    -0.6497 ****
14239 HO1    -5.688286   29.914802  -20.608486 H    2322 MOH     0.4215 ****
14240 HC1     1.229525   31.945429  -17.637223 H    2323 MOH     0.0372 ****
14241 C1      0.549407   31.376739  -17.002948 C    2323 MOH     0.1166 ****
14242 HC2     0.903900   31.413889  -15.972694 H    2323 MOH     0.0372 ****
14243 HC3     0.494558   30.340196  -17.334582 H    2323 MOH     0.0372 ****
14244 O1     -0.683236   31.999726  -17.084973 O    2323 MOH    -0.6497 ****
14245 HO1    -0.581045   32.892565  -16.749097 H    2323 MOH     0.4215 ****
14246 HC1     1.559192   32.319792  -12.408169 H    2324 MOH     0.0372 ****
14247 C1      1.392915   32.406749  -11.334073 C    2324 MOH     0.1166 ****
14248 HC2     1.465084   33.462888  -11.074565 H    2324 MOH     0.0372 ****
14249 HC3     2.179844   31.852756  -10.821421 H    2324 MOH     0.0372 ****
14250 O1      0.067319   31.887866  -11.100021 O    2324 MOH    -0.6497 ****
14251 HO1    -0.243873   32.236510  -10.261392 H    2324 MOH     0.4215 ****
14252 HC1    -6.741373   30.434093  -10.329982 H    2325 MOH     0.0372 ****
14253 C1     -5.665192   30.442258  -10.499687 C    2325 MOH     0.1166 ****
14254 HC2    -5.244881   31.302438   -9.979964 H    2325 MOH     0.0372 ****
14255 HC3    -5.461387   30.502679  -11.568833 H    2325 MOH     0.0372 ****
14256 O1     -5.071676   29.297530   -9.999056 O    2325 MOH    -0.6497 ****
14257 HO1    -5.533556   29.036251   -9.200025 H    2325 MOH     0.4215 ****
14258 HC1    -2.653733   28.322633  -12.209472 H    2326 MOH     0.0372 ****
14259 C1     -2.072341   29.079934  -11.682677 C    2326 MOH     0.1166 ****
14260 HC2    -1.018677   28.835801  -11.819856 H    2326 MOH     0.0372 ****
14261 HC3    -2.302126   29.090548  -10.617774 H    2326 MOH     0.0372 ****
14262 O1     -2.200513   30.340196  -12.234927 O    2326 MOH    -0.6497 ****
14263 HO1    -1.402037   30.816622  -11.993804 H    2326 MOH     0.4215 ****
14264 HC1    -2.433185   28.000117  -16.872134 H    2327 MOH     0.0372 ****
14265 C1     -2.466094   29.085241  -16.971129 C    2327 MOH     0.1166 ****
14266 HC2    -2.020957   29.554318  -16.093609 H    2327 MOH     0.0372 ****
14267 HC3    -3.503592   29.411023  -17.046082 H    2327 MOH     0.0372 ****
14268 O1     -1.780202   29.462463  -18.136441 O    2327 MOH    -0.6497 ****
14269 HO1    -1.678588   30.415722  -18.096136 H    2327 MOH     0.4215 ****
14270 HC1    -2.699343   26.446732  -13.709245 H    2328 MOH     0.0372 ****
14271 C1     -1.861608   26.674943  -14.368976 C    2328 MOH     0.1166 ****
14272 HC2    -1.504228   27.676376  -14.133509 H    2328 MOH     0.0372 ****
14273 HC3    -2.212060   26.630036  -15.399937 H    2328 MOH     0.0372 ****
14274 O1     -0.780808   25.733114  -14.164622 O    2328 MOH    -0.6497 ****
14275 HO1     0.052308   26.121359  -14.442515 H    2328 MOH     0.4215 ****
14276 HC1   -22.771272   -7.691643  -17.432021 H    2329 MOH     0.0372 ****
14277 C1    -23.482567   -8.517529  -17.442627 C    2329 MOH     0.1166 ****
14278 HC2   -23.120569   -9.248702  -18.165998 H    2329 MOH     0.0372 ****
14279 HC3   -24.471568   -8.145207  -17.712742 H    2329 MOH     0.0372 ****
14280 O1    -23.546076   -9.091118  -16.157814 O    2329 MOH    -0.6497 ****
14281 HO1   -23.822049   -8.407302  -15.543339 H    2329 MOH     0.4215 ****
14282 HC1   -20.193980  -12.824549  -20.252670 H    2330 MOH     0.0372 ****
14283 C1    -20.446860  -11.959879  -19.638901 C    2330 MOH     0.1166 ****
14284 HC2   -19.639147  -11.776575  -18.931087 H    2330 MOH     0.0372 ****
14285 HC3   -21.364847  -12.192580  -19.100086 H    2330 MOH     0.0372 ****
14286 O1    -20.639117  -10.851485  -20.495207 O    2330 MOH    -0.6497 ****
14287 HO1   -21.324432  -11.122562  -21.110390 H    2330 MOH     0.4215 ****
14288 HC1   -26.593908  -16.896825  -16.368532 H    2331 MOH     0.0372 ****
14289 C1    -27.485337  -16.270164  -16.400352 C    2331 MOH     0.1166 ****
14290 HC2   -28.373879  -16.900908  -16.440657 H    2331 MOH     0.0372 ****
14291 HC3   -27.476099  -15.652076  -17.298378 H    2331 MOH     0.0372 ****
14292 O1    -27.474944  -15.422641  -15.278881 O    2331 MOH    -0.6497 ****
14293 HO1   -26.719193  -14.842520  -15.395553 H    2331 MOH     0.4215 ****
14294 HC1   -24.936913  -15.634930  -17.782039 H    2332 MOH     0.0372 ****
14295 C1    -24.712323  -14.568994  -17.731834 C    2332 MOH     0.1166 ****
14296 HC2   -25.071435  -14.021124  -18.602990 H    2332 MOH     0.0372 ****
14297 HC3   -23.626328  -14.522453  -17.803959 H    2332 MOH     0.0372 ****
14298 O1    -25.073167  -13.970910  -16.465406 O    2332 MOH    -0.6497 ****
14299 HO1   -25.145336  -13.022141  -16.591271 H    2332 MOH     0.4215 ****
14300 HC1   -23.737179   -7.617342  -21.875480 H    2333 MOH     0.0372 ****
14301 C1    -24.048948   -8.036204  -20.918057 C    2333 MOH     0.1166 ****
14302 HC2   -24.576069   -7.289927  -20.325502 H    2333 MOH     0.0372 ****
14303 HC3   -23.156364   -8.369743  -20.389848 H    2333 MOH     0.0372 ****
14304 O1    -24.863589   -9.150314  -21.145039 O    2333 MOH    -0.6497 ****
14305 HO1   -25.549481   -8.909039  -21.770828 H    2333 MOH     0.4215 ****
14306 HC1   -26.987083   -9.879037  -16.999271 H    2334 MOH     0.0372 ****
14307 C1    -26.549452  -10.782491  -17.424243 C    2334 MOH     0.1166 ****
14308 HC2   -26.305810  -10.587348  -18.467932 H    2334 MOH     0.0372 ****
14309 HC3   -27.254974  -11.608785  -17.330905 H    2334 MOH     0.0372 ****
14310 O1    -25.413227  -11.080104  -16.676831 O    2334 MOH    -0.6497 ****
14311 HO1   -24.785647  -10.354238  -16.724914 H    2334 MOH     0.4215 ****
14312 HC1   -25.006195  -12.092968  -20.801385 H    2335 MOH     0.0372 ****
14313 C1    -24.080702  -11.793313  -20.307824 C    2335 MOH     0.1166 ****
14314 HC2   -23.636720  -12.647369  -19.795879 H    2335 MOH     0.0372 ****
14315 HC3   -24.326653  -11.041320  -19.558291 H    2335 MOH     0.0372 ****
14316 O1    -23.198511  -11.294026  -21.333836 O    2335 MOH    -0.6497 ****
14317 HO1   -23.389037  -10.355871  -21.408789 H    2335 MOH     0.4215 ****
14318 HC1   -15.163643   -2.850798  -21.513441 H    2336 MOH     0.0372 ****
14319 C1    -15.102444   -2.071044  -20.755423 C    2336 MOH     0.1166 ****
14320 HC2   -14.742177   -2.516851  -19.827699 H    2336 MOH     0.0372 ****
14321 HC3   -16.095486   -1.645649  -20.609759 H    2336 MOH     0.0372 ****
14322 O1    -14.231222   -1.048382  -21.183222 O    2336 MOH    -0.6497 ****
14323 HO1   -13.344412   -1.408457  -21.249690 H    2336 MOH     0.4215 ****
14324 HC1    -8.905166    1.898354  -27.294039 H    2337 MOH     0.0372 ****
14325 C1     -8.471576    2.091456  -26.313282 C    2337 MOH     0.1166 ****
14326 HC2    -8.185787    3.142287  -26.262370 H    2337 MOH     0.0372 ****
14327 HC3    -7.583611    1.472143  -26.186710 H    2337 MOH     0.0372 ****
14328 O1     -9.425936    1.776696  -25.305655 O    2337 MOH    -0.6497 ****
14329 HO1    -9.225018    0.885082  -25.012913 H    2337 MOH     0.4215 ****
14330 HC1    -4.835424    0.286998  -31.909325 H    2338 MOH     0.0372 ****
14331 C1     -5.029991    1.028377  -31.134336 C    2338 MOH     0.1166 ****
14332 HC2    -6.094047    1.070427  -30.901698 H    2338 MOH     0.0372 ****
14333 HC3    -4.728614    2.016746  -31.481525 H    2338 MOH     0.0372 ****
14334 O1     -4.360264    0.698104  -29.923062 O    2338 MOH    -0.6497 ****
14335 HO1    -4.577925   -0.196368  -29.650826 H    2338 MOH     0.4215 ****
14336 HC1   -20.721794    4.999817  -25.442126 H    2339 MOH     0.0372 ****
14337 C1    -20.117885    5.551360  -24.721585 C    2339 MOH     0.1166 ****
14338 HC2   -19.306131    4.916126  -24.368031 H    2339 MOH     0.0372 ****
14339 HC3   -20.766250    5.837134  -23.892856 H    2339 MOH     0.0372 ****
14340 O1    -19.613281    6.675268  -25.377073 O    2339 MOH    -0.6497 ****
14341 HO1   -18.800372    6.936955  -24.937959 H    2339 MOH     0.4215 ****
14342 HC1   -22.659959   -0.321700  -21.057357 H    2340 MOH     0.0372 ****
14343 C1    -23.680137   -0.614414  -20.809163 C    2340 MOH     0.1166 ****
14344 HC2   -23.841217   -0.556851  -19.733653 H    2340 MOH     0.0372 ****
14345 HC3   -23.888560   -1.636668  -21.125947 H    2340 MOH     0.0372 ****
14346 O1    -24.566369    0.278017  -21.410204 O    2340 MOH    -0.6497 ****
14347 HO1   -24.114881    0.654422  -22.169636 H    2340 MOH     0.4215 ****
14348 HC1    -9.952479    4.651173  -30.380560 H    2341 MOH     0.0372 ****
14349 C1     -9.903982    3.563599  -30.431472 C    2341 MOH     0.1166 ****
14350 HC2   -10.282146    3.208831  -31.389602 H    2341 MOH     0.0372 ****
14351 HC3   -10.510777    3.116975  -29.643755 H    2341 MOH     0.0372 ****
14352 O1     -8.567416    3.129223  -30.357933 O    2341 MOH    -0.6497 ****
14353 HO1    -8.599747    2.169839  -30.336719 H    2341 MOH     0.4215 ****
14354 HC1   -28.061070    2.465003  -24.853107 H    2342 MOH     0.0372 ****
14355 C1    -27.020685    2.492356  -25.179083 C    2342 MOH     0.1166 ****
14356 HC2   -26.436407    1.852631  -24.516524 H    2342 MOH     0.0372 ****
14357 HC3   -26.679471    3.526040  -25.125343 H    2342 MOH     0.0372 ****
14358 O1    -26.953713    2.010214  -26.502080 O    2342 MOH    -0.6497 ****
14359 HO1   -27.548383    1.257405  -26.545920 H    2342 MOH     0.4215 ****
14360 HC1    -5.156430    2.316809  -28.127718 H    2343 MOH     0.0372 ****
14361 C1     -5.073869    3.256596  -27.581831 C    2343 MOH     0.1166 ****
14362 HC2    -5.900635    3.912243  -27.854775 H    2343 MOH     0.0372 ****
14363 HC3    -4.116623    3.718733  -27.826490 H    2343 MOH     0.0372 ****
14364 O1     -5.114861    2.898563  -26.240450 O    2343 MOH    -0.6497 ****
14365 HO1    -4.890849    3.641575  -25.676179 H    2343 MOH     0.4215 ****
14366 HC1   -17.249032    6.941037  -28.384398 H    2344 MOH     0.0372 ****
14367 C1    -17.914717    7.799992  -28.299545 C    2344 MOH     0.1166 ****
14368 HC2   -18.956834    7.479925  -28.306616 H    2344 MOH     0.0372 ****
14369 HC3   -17.779617    8.424612  -29.182014 H    2344 MOH     0.0372 ****
14370 O1    -17.688973    8.596892  -27.096049 O    2344 MOH    -0.6497 ****
14371 HO1   -17.761719    8.029835  -26.326010 H    2344 MOH     0.4215 ****
14372 HC1   -17.174554   -3.713018  -19.434547 H    2345 MOH     0.0372 ****
14373 C1    -16.874909   -4.760175  -19.449396 C    2345 MOH     0.1166 ****
14374 HC2   -16.240978   -4.948786  -20.316309 H    2345 MOH     0.0372 ****
14375 HC3   -17.742666   -5.414189  -19.528592 H    2345 MOH     0.0372 ****
14376 O1    -16.169964   -5.071260  -18.255800 O    2345 MOH    -0.6497 ****
14377 HO1   -15.735797   -5.919600  -18.374594 H    2345 MOH     0.4215 ****
14378 HC1   -19.267448   14.108653  -22.527432 H    2346 MOH     0.0372 ****
14379 C1    -19.609240   13.439125  -23.316564 C    2346 MOH     0.1166 ****
14380 HC2   -20.107493   12.563024  -22.900785 H    2346 MOH     0.0372 ****
14381 HC3   -18.736864   13.121100  -23.887199 H    2346 MOH     0.0372 ****
14382 O1    -20.390395   14.169073  -24.238631 O    2346 MOH    -0.6497 ****
14383 HO1   -20.363259   13.682033  -25.065239 H    2346 MOH     0.4215 ****
14384 HC1   -16.500786   -2.597276  -26.858461 H    2347 MOH     0.0372 ****
14385 C1    -16.641082   -2.751594  -27.927607 C    2347 MOH     0.1166 ****
14386 HC2   -16.837381   -1.797109  -28.416925 H    2347 MOH     0.0372 ****
14387 HC3   -17.475353   -3.430511  -28.103676 H    2347 MOH     0.0372 ****
14388 O1    -15.465597   -3.305995  -28.479150 O    2347 MOH    -0.6497 ****
14389 HO1   -14.818965   -3.406832  -27.776993 H    2347 MOH     0.4215 ****
14390 HC1   -13.737588    5.439092  -25.567991 H    2348 MOH     0.0372 ****
14391 C1    -13.254923    4.473176  -25.715070 C    2348 MOH     0.1166 ****
14392 HC2   -14.027995    3.719142  -25.862855 H    2348 MOH     0.0372 ****
14393 HC3   -12.690274    4.230677  -24.815630 H    2348 MOH     0.0372 ****
14394 O1    -12.346751    4.500937  -26.837955 O    2348 MOH    -0.6497 ****
14395 HO1   -11.635455    5.105145  -26.608853 H    2348 MOH     0.4215 ****
14396 HC1   -10.039082   -8.686299  -26.613095 H    2349 MOH     0.0372 ****
14397 C1    -10.205359   -8.599342  -25.539000 C    2349 MOH     0.1166 ****
14398 HC2   -10.133190   -7.543204  -25.279492 H    2349 MOH     0.0372 ****
14399 HC3    -9.418430   -9.153335  -25.026347 H    2349 MOH     0.0372 ****
14400 O1    -11.530955   -9.118226  -25.304948 O    2349 MOH    -0.6497 ****
14401 HO1   -11.842147   -8.769582  -24.466319 H    2349 MOH     0.4215 ****
14402 HC1   -11.172998    8.710794  -17.432021 H    2350 MOH     0.0372 ****
14403 C1    -11.884293    7.884907  -17.442627 C    2350 MOH     0.1166 ****
14404 HC2   -11.522295    7.153735  -18.165998 H    2350 MOH     0.0372 ****
14405 HC3   -12.873294    8.257230  -17.712742 H    2350 MOH     0.0372 ****
14406 O1    -11.947802    7.311319  -16.157814 O    2350 MOH    -0.6497 ****
14407 HO1   -12.223775    7.995134  -15.543339 H    2350 MOH     0.4215 ****
14408 HC1   -26.665615   -0.116351  -23.414144 H    2351 MOH     0.0372 ****
14409 C1    -27.057058   -0.885491  -24.078825 C    2351 MOH     0.1166 ****
14410 HC2   -26.557650   -0.851606  -25.046854 H    2351 MOH     0.0372 ****
14411 HC3   -28.128620   -0.723008  -24.203275 H    2351 MOH     0.0372 ****
14412 O1    -26.916185   -2.152285  -23.494047 O    2351 MOH    -0.6497 ****
14413 HO1   -27.362477   -2.152693  -22.644812 H    2351 MOH     0.4215 ****
14414 HC1   -10.445536   -2.548286  -27.794671 H    2352 MOH     0.0372 ****
14415 C1    -10.462279   -3.555435  -28.212571 C    2352 MOH     0.1166 ****
14416 HC2    -9.960562   -4.213939  -27.504757 H    2352 MOH     0.0372 ****
14417 HC3    -9.910910   -3.584012  -29.153023 H    2352 MOH     0.0372 ****
14418 O1    -11.805196   -3.991035  -28.361770 O    2352 MOH    -0.6497 ****
14419 HO1   -12.297099   -3.730165  -27.579003 H    2352 MOH     0.4215 ****
14420 HC1   -16.310838    1.242708  -28.662998 H    2353 MOH     0.0372 ****
14421 C1    -17.374317    1.443566  -28.794520 C    2353 MOH     0.1166 ****
14422 HC2   -17.956286    0.522558  -28.767650 H    2353 MOH     0.0372 ****
14423 HC3   -17.539439    1.914276  -29.763963 H    2353 MOH     0.0372 ****
14424 O1    -17.824650    2.333955  -27.815177 O    2353 MOH    -0.6497 ****
14425 HO1   -17.714376    3.228427  -28.145396 H    2353 MOH     0.4215 ****
14426 HC1   -12.597898    4.170256  -31.459605 H    2354 MOH     0.0372 ****
14427 C1    -13.002043    4.516042  -32.410664 C    2354 MOH     0.1166 ****
14428 HC2   -13.935041    3.992668  -32.622796 H    2354 MOH     0.0372 ****
14429 HC3   -12.280933    4.371114  -33.214644 H    2354 MOH     0.0372 ****
14430 O1    -13.248572    5.882041  -32.256514 O    2354 MOH    -0.6497 ****
14431 HO1   -12.424116    6.337646  -32.068424 H    2354 MOH     0.4215 ****
14432 HC1   -15.645730   -3.510527  -24.836843 H    2355 MOH     0.0372 ****
14433 C1    -14.891711   -4.264154  -25.064531 C    2355 MOH     0.1166 ****
14434 HC2   -15.377840   -5.153727  -25.464047 H    2355 MOH     0.0372 ****
14435 HC3   -14.402695   -4.553602  -24.134686 H    2355 MOH     0.0372 ****
14436 O1    -13.957558   -3.722000  -26.009226 O    2355 MOH    -0.6497 ****
14437 HO1   -13.741052   -2.824262  -25.749718 H    2355 MOH     0.4215 ****
14438 HC1   -20.303215   -5.734664  -25.348788 H    2356 MOH     0.0372 ****
14439 C1    -20.214880   -4.748744  -24.892704 C    2356 MOH     0.1166 ****
14440 HC2   -20.815902   -4.716901  -23.984779 H    2356 MOH     0.0372 ****
14441 HC3   -20.567064   -4.013489  -25.616075 H    2356 MOH     0.0372 ****
14442 O1    -18.874850   -4.545028  -24.585113 O    2356 MOH    -0.6497 ****
14443 HO1   -18.389876   -5.011656  -25.268885 H    2356 MOH     0.4215 ****
14444 HC1   -10.358356    6.057588  -33.126256 H    2357 MOH     0.0372 ****
14445 C1     -9.938045    6.941037  -32.645423 C    2357 MOH     0.1166 ****
14446 HC2    -9.684589    7.682824  -33.402735 H    2357 MOH     0.0372 ****
14447 HC3    -9.051235    6.658121  -32.079031 H    2357 MOH     0.0372 ****
14448 O1    -10.943212    7.437467  -31.822351 O    2357 MOH    -0.6497 ****
14449 HO1   -10.586987    7.633835  -30.953317 H    2357 MOH     0.4215 ****
14450 HC1   -16.007151    8.365416  -20.550362 H    2358 MOH     0.0372 ****
14451 C1    -16.049875    9.239475  -21.200193 C    2358 MOH     0.1166 ****
14452 HC2   -15.249091    9.939621  -20.961898 H    2358 MOH     0.0372 ****
14453 HC3   -16.989224    9.755501  -21.005031 H    2358 MOH     0.0372 ****
14454 O1    -16.049298    8.885116  -22.591779 O    2358 MOH    -0.6497 ****
14455 HO1   -15.940179    9.677526  -23.122816 H    2358 MOH     0.4215 ****
14456 HC1   -22.524281    1.081450  -27.665270 H    2359 MOH     0.0372 ****
14457 C1    -21.492556    0.797717  -27.871038 C    2359 MOH     0.1166 ****
14458 HC2   -21.221779   -0.028169  -27.214136 H    2359 MOH     0.0372 ****
14459 HC3   -20.844192    1.648506  -27.660320 H    2359 MOH     0.0372 ****
14460 O1    -21.354570    0.478467  -29.232926 O    2359 MOH    -0.6497 ****
14461 HO1   -21.651328    1.271285  -29.685474 H    2359 MOH     0.4215 ****
14462 HC1   -10.898756   -3.480725  -20.022153 H    2360 MOH     0.0372 ****
14463 C1    -10.823701   -2.438875  -20.331866 C    2360 MOH     0.1166 ****
14464 HC2    -9.785048   -2.214339  -20.575110 H    2360 MOH     0.0372 ****
14465 HC3   -11.185699   -1.837526  -19.496773 H    2360 MOH     0.0372 ****
14466 O1    -11.711665   -2.281292  -21.408082 O    2360 MOH    -0.6497 ****
14467 HO1   -11.344471   -2.801808  -22.125796 H    2360 MOH     0.4215 ****
14468 HC1   -21.173859   -7.393377  -19.473438 H    2361 MOH     0.0372 ****
14469 C1    -20.181394   -7.372556  -19.923865 C    2361 MOH     0.1166 ****
14470 HC2   -19.658315   -6.461346  -19.633951 H    2361 MOH     0.0372 ****
14471 HC3   -20.241438   -7.428078  -21.009981 H    2361 MOH     0.0372 ****
14472 O1    -19.446427   -8.437268  -19.475559 O    2361 MOH    -0.6497 ****
14473 HO1   -19.893296   -9.233352  -19.771130 H    2361 MOH     0.4215 ****
14474 HC1   -23.233845    4.836109  -26.468138 H    2362 MOH     0.0372 ****
14475 C1    -23.473445    4.203324  -25.613953 C    2362 MOH     0.1166 ****
14476 HC2   -24.519026    4.327840  -25.333232 H    2362 MOH     0.0372 ****
14477 HC3   -22.841247    4.510735  -24.780275 H    2362 MOH     0.0372 ****
14478 O1    -23.171491    2.853247  -25.930030 O    2362 MOH    -0.6497 ****
14479 HO1   -23.633948    2.580129  -26.725525 H    2362 MOH     0.4215 ****
14480 HC1    -7.398859   -2.004499  -33.587289 H    2363 MOH     0.0372 ****
14481 C1     -7.921361   -1.075326  -33.359601 C    2363 MOH     0.1166 ****
14482 HC2    -8.953663   -1.288432  -33.081001 H    2363 MOH     0.0372 ****
14483 HC3    -7.880946   -0.429069  -34.235706 H    2363 MOH     0.0372 ****
14484 O1     -7.233737   -0.511944  -32.293284 O    2363 MOH    -0.6497 ****
14485 HO1    -6.771279   -1.227195  -31.850635 H    2363 MOH     0.4215 ****
14486 HC1   -13.998550   -6.790394  -23.947303 H    2364 MOH     0.0372 ****
14487 C1    -13.747403   -7.310911  -23.023114 C    2364 MOH     0.1166 ****
14488 HC2   -14.414242   -8.164558  -22.902199 H    2364 MOH     0.0372 ****
14489 HC3   -13.870378   -6.640975  -22.172465 H    2364 MOH     0.0372 ****
14490 O1    -12.407373   -7.741612  -23.119988 O    2364 MOH    -0.6497 ****
14491 HO1   -12.217424   -8.297238  -22.361262 H    2364 MOH     0.4215 ****
14492 HC1   -22.472320   -0.562158  -24.726534 H    2365 MOH     0.0372 ****
14493 C1    -23.482105   -0.162891  -24.634611 C    2365 MOH     0.1166 ****
14494 HC2   -24.094674   -0.904270  -24.121251 H    2365 MOH     0.0372 ****
14495 HC3   -23.883364    0.028985  -25.630217 H    2365 MOH     0.0372 ****
14496 O1    -23.413978    1.025928  -23.872349 O    2365 MOH    -0.6497 ****
14497 HO1   -23.079692    1.719133  -24.446520 H    2365 MOH     0.4215 ****
14498 HC1   -10.014256   -7.218238  -29.003116 H    2366 MOH     0.0372 ****
14499 C1     -9.143034   -6.714868  -29.422430 C    2366 MOH     0.1166 ****
14500 HC2    -9.440947   -5.765691  -29.865786 H    2366 MOH     0.0372 ****
14501 HC3    -8.704248   -7.326424  -30.211562 H    2366 MOH     0.0372 ****
14502 O1     -8.174240   -6.439709  -28.436724 O    2366 MOH    -0.6497 ****
14503 HO1    -7.744114   -7.277842  -28.253583 H    2366 MOH     0.4215 ****
14504 HC1   -20.042253    2.111460  -20.041952 H    2367 MOH     0.0372 ****
14505 C1    -19.434303    2.982254  -20.290146 C    2367 MOH     0.1166 ****
14506 HC2   -18.384680    2.712810  -20.404698 H    2367 MOH     0.0372 ****
14507 HC3   -19.490883    3.704445  -19.474852 H    2367 MOH     0.0372 ****
14508 O1    -19.829210    3.544412  -21.500006 O    2367 MOH    -0.6497 ****
14509 HO1   -19.547463    2.945920  -22.195799 H    2367 MOH     0.4215 ****
14510 HC1   -14.461585    8.361333  -30.729871 H    2368 MOH     0.0372 ****
14511 C1    -15.476566    7.977988  -30.833816 C    2368 MOH     0.1166 ****
14512 HC2   -16.197677    8.795301  -30.812602 H    2368 MOH     0.0372 ****
14513 HC3   -15.711548    7.283149  -30.027714 H    2368 MOH     0.0372 ****
14514 O1    -15.604161    7.266003  -32.016098 O    2368 MOH    -0.6497 ****
14515 HO1   -14.883628    6.632810  -32.047918 H    2368 MOH     0.4215 ****
14516 HC1   -11.587535    0.079200  -23.470006 H    2369 MOH     0.0372 ****
14517 C1    -12.209919    0.973672  -23.479198 C    2369 MOH     0.1166 ****
14518 HC2   -11.765936    1.760775  -22.869672 H    2369 MOH     0.0372 ****
14519 HC3   -13.181599    0.695655  -23.069783 H    2369 MOH     0.0372 ****
14520 O1    -12.389475    1.426419  -24.800781 O    2369 MOH    -0.6497 ****
14521 HO1   -11.532110    1.701987  -25.133828 H    2369 MOH     0.4215 ****
14522 HC1   -19.847108    6.046973  -29.288080 H    2370 MOH     0.0372 ****
14523 C1    -19.665820    5.008798  -29.008773 C    2370 MOH     0.1166 ****
14524 HC2   -20.325154    4.371522  -29.597793 H    2370 MOH     0.0372 ****
14525 HC3   -19.890409    4.854072  -27.953063 H    2370 MOH     0.0372 ****
14526 O1    -18.335605    4.613205  -29.249896 O    2370 MOH    -0.6497 ****
14527 HO1   -18.156049    4.721391  -30.186813 H    2370 MOH     0.4215 ****
14528 HC1   -15.958654    0.258829  -25.629510 H    2371 MOH     0.0372 ****
14529 C1    -15.504857    1.138196  -25.172719 C    2371 MOH     0.1166 ****
14530 HC2   -14.667699    1.454997  -25.794973 H    2371 MOH     0.0372 ****
14531 HC3   -15.201170    0.889165  -24.155899 H    2371 MOH     0.0372 ****
14532 O1    -16.455175    2.135955  -25.208074 O    2371 MOH    -0.6497 ****
14533 HO1   -16.783110    2.191477  -26.108928 H    2371 MOH     0.4215 ****
14534 HC1    -8.595706    3.577888  -20.252670 H    2372 MOH     0.0372 ****
14535 C1     -8.848586    4.442558  -19.638901 C    2372 MOH     0.1166 ****
14536 HC2    -8.040872    4.625861  -18.931087 H    2372 MOH     0.0372 ****
14537 HC3    -9.766572    4.209856  -19.100086 H    2372 MOH     0.0372 ****
14538 O1     -9.040843    5.550952  -20.495207 O    2372 MOH    -0.6497 ****
14539 HO1    -9.726158    5.279875  -21.110390 H    2372 MOH     0.4215 ****
14540 HC1   -12.336358   -3.681583  -23.786789 H    2373 MOH     0.0372 ****
14541 C1    -11.513634   -4.372339  -23.972051 C    2373 MOH     0.1166 ****
14542 HC2   -11.238238   -4.251090  -25.019276 H    2373 MOH     0.0372 ****
14543 HC3   -11.821939   -5.412148  -23.865278 H    2373 MOH     0.0372 ****
14544 O1    -10.423597   -4.061662  -23.087461 O    2373 MOH    -0.6497 ****
14545 HO1    -9.812760   -4.802225  -23.074733 H    2373 MOH     0.4215 ****
14546 HC1    -7.502205   -2.723833  -24.851692 H    2374 MOH     0.0372 ****
14547 C1     -8.333589   -2.040425  -25.021398 C    2374 MOH     0.1166 ****
14548 HC2    -9.255617   -2.500521  -24.664309 H    2374 MOH     0.0372 ****
14549 HC3    -8.404026   -1.852223  -26.092665 H    2374 MOH     0.0372 ****
14550 O1     -8.005654   -0.819763  -24.369445 O    2374 MOH    -0.6497 ****
14551 HO1    -7.392508   -1.016947  -23.657389 H    2374 MOH     0.4215 ****
14552 HC1   -14.995634   -0.494389  -16.368532 H    2375 MOH     0.0372 ****
14553 C1    -15.887063    0.132272  -16.400352 C    2375 MOH     0.1166 ****
14554 HC2   -16.775605   -0.498471  -16.440657 H    2375 MOH     0.0372 ****
14555 HC3   -15.877825    0.750360  -17.298378 H    2375 MOH     0.0372 ****
14556 O1    -15.876670    0.979796  -15.278881 O    2375 MOH    -0.6497 ****
14557 HO1   -15.120919    1.559917  -15.395553 H    2375 MOH     0.4215 ****
14558 HC1    -7.742382    0.102470  -28.829168 H    2376 MOH     0.0372 ****
14559 C1     -8.752168   -0.218413  -29.085140 C    2376 MOH     0.1166 ****
14560 HC2    -9.449607    0.212289  -28.366013 H    2376 MOH     0.0372 ****
14561 HC3    -8.833574   -1.304762  -29.050492 H    2376 MOH     0.0372 ****
14562 O1     -9.107238    0.240866  -30.357226 O    2376 MOH    -0.6497 ****
14563 HO1    -8.508526   -0.166566  -30.986551 H    2376 MOH     0.4215 ****
14564 HC1   -13.338639    0.767507  -17.782039 H    2377 MOH     0.0372 ****
14565 C1    -13.114049    1.833443  -17.731834 C    2377 MOH     0.1166 ****
14566 HC2   -13.473161    2.381312  -18.602990 H    2377 MOH     0.0372 ****
14567 HC3   -12.028053    1.879983  -17.803959 H    2377 MOH     0.0372 ****
14568 O1    -13.474893    2.431527  -16.465406 O    2377 MOH    -0.6497 ****
14569 HO1   -13.547062    3.380296  -16.591271 H    2377 MOH     0.4215 ****
14570 HC1   -19.096553   -1.326399  -21.332422 H    2378 MOH     0.0372 ****
14571 C1    -18.751297   -2.169432  -21.929927 C    2378 MOH     0.1166 ****
14572 HC2   -18.011134   -2.701379  -21.331008 H    2378 MOH     0.0372 ****
14573 HC3   -18.309624   -1.783637  -22.848459 H    2378 MOH     0.0372 ****
14574 O1    -19.803807   -3.087174  -22.263681 O    2378 MOH    -0.6497 ****
14575 HO1   -19.524947   -3.600342  -23.025235 H    2378 MOH     0.4215 ****
14576 HC1   -11.939141    7.210889  -27.554961 H    2379 MOH     0.0372 ****
14577 C1    -12.431621    7.647307  -28.423996 C    2379 MOH     0.1166 ****
14578 HC2   -13.373857    8.134755  -28.173680 H    2379 MOH     0.0372 ****
14579 HC3   -12.683923    6.812847  -29.078777 H    2379 MOH     0.0372 ****
14580 O1    -11.593886    8.572397  -29.124031 O    2379 MOH    -0.6497 ****
14581 HO1   -12.134863    9.272135  -29.495970 H    2379 MOH     0.4215 ****
14582 HC1    -5.598103   -4.189036  -29.894071 H    2380 MOH     0.0372 ****
14583 C1     -6.503966   -3.864479  -30.405309 C    2380 MOH     0.1166 ****
14584 HC2    -7.389621   -4.257213  -29.906091 H    2380 MOH     0.0372 ****
14585 HC3    -6.496460   -4.212714  -31.438392 H    2380 MOH     0.0372 ****
14586 O1     -6.596919   -2.472352  -30.391167 O    2380 MOH    -0.6497 ****
14587 HO1    -6.326719   -2.186986  -29.515061 H    2380 MOH     0.4215 ****
14588 HC1   -13.063820    0.374772  -27.909222 H    2381 MOH     0.0372 ****
14589 C1    -12.400444   -0.447032  -27.639814 C    2381 MOH     0.1166 ****
14590 HC2   -11.384308   -0.060829  -27.562032 H    2381 MOH     0.0372 ****
14591 HC3   -12.414301   -1.229644  -28.398540 H    2381 MOH     0.0372 ****
14592 O1    -12.778609   -0.874060  -26.352880 O    2381 MOH    -0.6497 ****
14593 HO1   -12.724915   -0.104920  -25.781538 H    2381 MOH     0.4215 ****
14594 HC1    -9.283908    6.574022  -23.805881 H    2382 MOH     0.0372 ****
14595 C1     -9.623390    5.828152  -24.525009 C    2382 MOH     0.1166 ****
14596 HC2   -10.129726    4.990835  -24.043469 H    2382 MOH     0.0372 ****
14597 HC3    -8.736580    5.431335  -25.019984 H    2382 MOH     0.0372 ****
14598 O1    -10.464589    6.448690  -25.479603 O    2382 MOH    -0.6497 ****
14599 HO1    -9.935159    7.133730  -25.895382 H    2382 MOH     0.4215 ****
14600 HC1   -15.915353    4.070235  -29.643048 H    2383 MOH     0.0372 ****
14601 C1    -15.258905    4.345803  -28.817854 C    2383 MOH     0.1166 ****
14602 HC2   -15.805656    4.309877  -27.874574 H    2383 MOH     0.0372 ****
14603 HC3   -14.912495    5.368465  -28.968468 H    2383 MOH     0.0372 ****
14604 O1    -14.140001    3.473785  -28.752800 O    2383 MOH    -0.6497 ****
14605 HO1   -13.534938    3.800383  -28.082463 H    2383 MOH     0.4215 ****
14606 HC1   -12.138905    8.785095  -21.875480 H    2384 MOH     0.0372 ****
14607 C1    -12.450674    8.366232  -20.918057 C    2384 MOH     0.1166 ****
14608 HC2   -12.977795    9.112510  -20.325502 H    2384 MOH     0.0372 ****
14609 HC3   -11.558090    8.032693  -20.389848 H    2384 MOH     0.0372 ****
14610 O1    -13.265315    7.252122  -21.145039 O    2384 MOH    -0.6497 ****
14611 HO1   -13.951207    7.493397  -21.770828 H    2384 MOH     0.4215 ****
14612 HC1   -17.301571    5.709352  -23.083218 H    2385 MOH     0.0372 ****
14613 C1    -16.719602    5.951852  -23.972759 C    2385 MOH     0.1166 ****
14614 HC2   -16.755975    5.130048  -24.687644 H    2385 MOH     0.0372 ****
14615 HC3   -15.692496    6.095147  -23.635469 H    2385 MOH     0.0372 ****
14616 O1    -17.185523    7.196192  -24.504503 O    2385 MOH    -0.6497 ****
14617 HO1   -16.769831    7.873476  -23.966395 H    2385 MOH     0.4215 ****
14618 HC1   -19.807271    1.143095  -25.411721 H    2386 MOH     0.0372 ****
14619 C1    -19.644458    0.918967  -24.357425 C    2386 MOH     0.1166 ****
14620 HC2   -19.076923   -0.007757  -24.265501 H    2386 MOH     0.0372 ****
14621 HC3   -20.628263    0.801391  -23.903462 H    2386 MOH     0.0372 ****
14622 O1    -18.951638    1.995517  -23.765576 O    2386 MOH    -0.6497 ****
14623 HO1   -18.113325    2.086149  -24.223781 H    2386 MOH     0.4215 ****
14624 HC1   -21.871876   -4.923066  -20.652185 H    2387 MOH     0.0372 ****
14625 C1    -22.265051   -4.488282  -19.733653 C    2387 MOH     0.1166 ****
14626 HC2   -22.449226   -3.423570  -19.875075 H    2387 MOH     0.0372 ****
14627 HC3   -21.565880   -4.632393  -18.909874 H    2387 MOH     0.0372 ****
14628 O1    -23.429567   -5.149236  -19.404849 O    2387 MOH    -0.6497 ****
14629 HO1   -23.853919   -4.699754  -18.670165 H    2387 MOH     0.4215 ****
14630 HC1    -5.998207   -5.294980  -25.456976 H    2388 MOH     0.0372 ****
14631 C1     -5.614269   -4.698122  -26.284290 C    2388 MOH     0.1166 ****
14632 HC2    -4.926645   -5.315393  -26.862704 H    2388 MOH     0.0372 ****
14633 HC3    -5.113129   -3.836309  -25.842349 H    2388 MOH     0.0372 ****
14634 O1     -6.679480   -4.258438  -27.071300 O    2388 MOH    -0.6497 ****
14635 HO1    -7.208911   -5.014514  -27.332930 H    2388 MOH     0.4215 ****
14636 HC1   -15.531992    3.701179  -20.856539 H    2389 MOH     0.0372 ****
14637 C1    -15.468484    2.778129  -21.432831 C    2389 MOH     0.1166 ****
14638 HC2   -14.436759    2.574005  -21.718502 H    2389 MOH     0.0372 ****
14639 HC3   -16.085671    2.889989  -22.323786 H    2389 MOH     0.0372 ****
14640 O1    -15.986367    1.724849  -20.667741 O    2389 MOH    -0.6497 ****
14641 HO1   -15.736374    0.900187  -21.092005 H    2389 MOH     0.4215 ****
14642 HC1    -6.106172    0.161666  -26.721282 H    2390 MOH     0.0372 ****
14643 C1     -5.465890   -0.713618  -26.612388 C    2390 MOH     0.1166 ****
14644 HC2    -5.616001   -1.114518  -25.609711 H    2390 MOH     0.0372 ****
14645 HC3    -4.427237   -0.400900  -26.718454 H    2390 MOH     0.0372 ****
14646 O1     -5.845209   -1.655447  -27.615773 O    2390 MOH    -0.6497 ****
14647 HO1    -5.916223   -2.528690  -27.223328 H    2390 MOH     0.4215 ****
14648 HC1    -7.970436    2.375188  -22.300451 H    2391 MOH     0.0372 ****
14649 C1     -7.111916    2.736896  -22.866136 C    2391 MOH     0.1166 ****
14650 HC2    -7.460058    3.256188  -23.758505 H    2391 MOH     0.0372 ****
14651 HC3    -6.482604    1.896313  -23.159586 H    2391 MOH     0.0372 ****
14652 O1     -6.362515    3.626469  -22.070641 O    2391 MOH    -0.6497 ****
14653 HO1    -6.195084    3.208015  -21.222820 H    2391 MOH     0.4215 ****
14654 HC1    -7.171383    3.696280  -32.232473 H    2392 MOH     0.0372 ****
14655 C1     -7.618252    4.110244  -33.136155 C    2392 MOH     0.1166 ****
14656 HC2    -8.645935    4.429085  -32.964328 H    2392 MOH     0.0372 ****
14657 HC3    -7.587652    3.337838  -33.905487 H    2392 MOH     0.0372 ****
14658 O1     -6.807652    5.174547  -33.524357 O    2392 MOH    -0.6497 ****
14659 HO1    -6.625787    5.720783  -32.756439 H    2392 MOH     0.4215 ****
14660 HC1   -22.223482    8.637309  -27.586074 H    2393 MOH     0.0372 ****
14661 C1    -22.594141    8.240492  -26.641380 C    2393 MOH     0.1166 ****
14662 HC2   -21.739662    8.117609  -25.975992 H    2393 MOH     0.0372 ****
14663 HC3   -23.065836    7.264778  -26.757345 H    2393 MOH     0.0372 ****
14664 O1    -23.449196    9.175788  -26.079230 O    2393 MOH    -0.6497 ****
14665 HO1   -23.264444    9.177421  -25.137364 H    2393 MOH     0.4215 ****
14666 HC1   -22.339529   -4.417247  -15.434444 H    2394 MOH     0.0372 ****
14667 C1    -21.445214   -4.859788  -14.994624 C    2394 MOH     0.1166 ****
14668 HC2   -21.379396   -4.586670  -13.941742 H    2394 MOH     0.0372 ****
14669 HC3   -20.554940   -4.489915  -15.503741 H    2394 MOH     0.0372 ****
14670 O1    -21.496598   -6.272327  -15.110589 O    2394 MOH    -0.6497 ****
14671 HO1   -20.591313   -6.580554  -15.022201 H    2394 MOH     0.4215 ****
14672 HC1   -22.935355    3.962458  -21.847903 H    2395 MOH     0.0372 ****
14673 C1    -23.001750    3.701995  -20.791485 C    2395 MOH     0.1166 ****
14674 HC2   -22.893785    2.623812  -20.667741 H    2395 MOH     0.0372 ****
14675 HC3   -23.985555    4.016755  -20.442882 H    2395 MOH     0.0372 ****
14676 O1    -22.017945    4.420921  -20.068115 O    2395 MOH    -0.6497 ****
14677 HO1   -21.195221    4.311918  -20.551069 H    2395 MOH     0.4215 ****
14678 HC1   -15.388809    6.523399  -16.999271 H    2396 MOH     0.0372 ****
14679 C1    -14.951178    5.619946  -17.424243 C    2396 MOH     0.1166 ****
14680 HC2   -14.707536    5.815089  -18.467932 H    2396 MOH     0.0372 ****
14681 HC3   -15.656700    4.793651  -17.330905 H    2396 MOH     0.0372 ****
14682 O1    -13.814953    5.322333  -16.676831 O    2396 MOH    -0.6497 ****
14683 HO1   -13.187373    6.048198  -16.724914 H    2396 MOH     0.4215 ****
14684 HC1   -18.608692   -0.674426  -17.632132 H    2397 MOH     0.0372 ****
14685 C1    -19.019188   -1.630952  -17.308984 C    2397 MOH     0.1166 ****
14686 HC2   -18.240342   -2.393560  -17.287771 H    2397 MOH     0.0372 ****
14687 HC3   -19.804384   -1.909786  -18.011141 H    2397 MOH     0.0372 ****
14688 O1    -19.615013   -1.486432  -16.053163 O    2397 MOH    -0.6497 ****
14689 HO1   -18.994362   -1.037359  -15.474749 H    2397 MOH     0.4215 ****
14690 HC1   -13.407921    4.309469  -20.801385 H    2398 MOH     0.0372 ****
14691 C1    -12.482428    4.609123  -20.307824 C    2398 MOH     0.1166 ****
14692 HC2   -12.038446    3.755068  -19.795879 H    2398 MOH     0.0372 ****
14693 HC3   -12.728379    5.361116  -19.558291 H    2398 MOH     0.0372 ****
14694 O1    -11.600237    5.108411  -21.333836 O    2398 MOH    -0.6497 ****
14695 HO1   -11.790762    6.046565  -21.408789 H    2398 MOH     0.4215 ****
14696 HC1   -24.508057   -3.922450  -21.599001 H    2399 MOH     0.0372 ****
14697 C1    -24.024815   -4.073093  -22.564202 C    2399 MOH     0.1166 ****
14698 HC2   -23.569285   -5.062687  -22.584001 H    2399 MOH     0.0372 ****
14699 HC3   -23.264444   -3.303954  -22.702795 H    2399 MOH     0.0372 ****
14700 O1    -25.055962   -4.023695  -23.550616 O    2399 MOH    -0.6497 ****
14701 HO1   -25.568649   -3.222712  -23.420508 H    2399 MOH     0.4215 ****
14702 HC1   -14.991015    8.178438  -25.453440 H    2400 MOH     0.0372 ****
14703 C1    -14.045315    8.521366  -25.033419 C    2400 MOH     0.1166 ****
14704 HC2   -14.159053    9.495855  -24.557536 H    2400 MOH     0.0372 ****
14705 HC3   -13.315544    8.634859  -25.835278 H    2400 MOH     0.0372 ****
14706 O1    -13.603642    7.599134  -24.061147 O    2400 MOH    -0.6497 ****
14707 HO1   -12.772258    7.210889  -24.343282 H    2400 MOH     0.4215 ****
14708 HC1   -15.072999    0.112676  -30.382681 H    2401 MOH     0.0372 ****
14709 C1    -14.291266    0.785878  -30.734114 C    2401 MOH     0.1166 ****
14710 HC2   -13.731814    0.351093  -31.562136 H    2401 MOH     0.0372 ****
14711 HC3   -13.605952    0.990818  -29.912455 H    2401 MOH     0.0372 ****
14712 O1    -14.865153    1.985311  -31.179591 O    2401 MOH    -0.6497 ****
14713 HO1   -14.670008    2.628711  -30.493697 H    2401 MOH     0.4215 ****
14714 HC1   -15.674713   12.312605  -26.019833 H    2402 MOH     0.0372 ****
14715 C1    -16.475498   11.918645  -25.394043 C    2402 MOH     0.1166 ****
14716 HC2   -17.041301   11.188289  -25.973164 H    2402 MOH     0.0372 ****
14717 HC3   -17.148111   12.695542  -25.032712 H    2402 MOH     0.0372 ****
14718 O1    -15.978399   11.177675  -24.349647 O    2402 MOH    -0.6497 ****
14719 HO1   -15.433958   11.773717  -23.830630 H    2402 MOH     0.4215 ****
14720 HC1    -3.565369   13.551639  -21.513441 H    2403 MOH     0.0372 ****
14721 C1     -3.504170   14.331393  -20.755423 C    2403 MOH     0.1166 ****
14722 HC2    -3.143903   13.885586  -19.827699 H    2403 MOH     0.0372 ****
14723 HC3    -4.497212   14.756788  -20.609759 H    2403 MOH     0.0372 ****
14724 O1     -2.632948   15.354055  -21.183222 O    2403 MOH    -0.6497 ****
14725 HO1    -1.746138   14.993980  -21.249690 H    2403 MOH     0.4215 ****
14726 HC1    -3.944110    7.447102  -34.926550 H    2404 MOH     0.0372 ****
14727 C1     -4.131172    6.461182  -34.501578 C    2404 MOH     0.1166 ****
14728 HC2    -4.523193    6.555896  -33.489002 H    2404 MOH     0.0372 ****
14729 HC3    -3.173925    5.944748  -34.432989 H    2404 MOH     0.0372 ****
14730 O1     -4.972371    5.657341  -35.350814 O    2404 MOH    -0.6497 ****
14731 HO1    -5.688285    5.311147  -34.813413 H    2404 MOH     0.4215 ****
14732 HC1    -1.313703    7.919037  -28.289645 H    2405 MOH     0.0372 ****
14733 C1     -2.162407    8.353821  -27.761437 C    2405 MOH     0.1166 ****
14734 HC2    -2.298662    9.380974  -28.099434 H    2405 MOH     0.0372 ****
14735 HC3    -1.997863    8.341574  -26.683806 H    2405 MOH     0.0372 ****
14736 O1     -3.328078    7.655717  -28.095191 O    2405 MOH    -0.6497 ****
14737 HO1    -3.300942    6.855142  -27.565568 H    2405 MOH     0.4215 ****
14738 HC1    -9.123520   21.402253  -25.442126 H    2406 MOH     0.0372 ****
14739 C1     -8.519611   21.953797  -24.721585 C    2406 MOH     0.1166 ****
14740 HC2    -7.707857   21.318562  -24.368031 H    2406 MOH     0.0372 ****
14741 HC3    -9.167976   22.239570  -23.892856 H    2406 MOH     0.0372 ****
14742 O1     -8.015007   23.077704  -25.377073 O    2406 MOH    -0.6497 ****
14743 HO1    -7.202098   23.339391  -24.937959 H    2406 MOH     0.4215 ****
14744 HC1   -11.061685   16.080737  -21.057357 H    2407 MOH     0.0372 ****
14745 C1    -12.081862   15.788023  -20.809163 C    2407 MOH     0.1166 ****
14746 HC2   -12.242943   15.845586  -19.733653 H    2407 MOH     0.0372 ****
14747 HC3   -12.290286   14.765769  -21.125947 H    2407 MOH     0.0372 ****
14748 O1    -12.968095   16.680453  -21.410204 O    2407 MOH    -0.6497 ****
14749 HO1   -12.516607   17.056858  -22.169636 H    2407 MOH     0.4215 ****
14750 HC1   -16.462796   18.867440  -24.853107 H    2408 MOH     0.0372 ****
14751 C1    -15.422411   18.894792  -25.179083 C    2408 MOH     0.1166 ****
14752 HC2   -14.838133   18.255067  -24.516524 H    2408 MOH     0.0372 ****
14753 HC3   -15.081197   19.928477  -25.125343 H    2408 MOH     0.0372 ****
14754 O1    -15.355438   18.412651  -26.502080 O    2408 MOH    -0.6497 ****
14755 HO1   -15.950109   17.659841  -26.545920 H    2408 MOH     0.4215 ****
14756 HC1   -13.582396   14.185240  -29.013016 H    2409 MOH     0.0372 ****
14757 C1    -12.667873   14.491426  -29.520718 C    2409 MOH     0.1166 ****
14758 HC2   -12.072625   15.145848  -28.883615 H    2409 MOH     0.0372 ****
14759 HC3   -12.943269   15.037662  -30.422987 H    2409 MOH     0.0372 ****
14760 O1    -11.965815   13.352005  -29.918819 O    2409 MOH    -0.6497 ****
14761 HO1   -11.031085   13.550822  -29.829017 H    2409 MOH     0.4215 ****
14762 HC1    -0.316041   10.004777  -32.446726 H    2410 MOH     0.0372 ****
14763 C1     -0.268699   10.728193  -31.632139 C    2410 MOH     0.1166 ****
14764 HC2    -1.061978   11.455692  -31.803259 H    2410 MOH     0.0372 ****
14765 HC3     0.692012   11.241770  -31.678808 H    2410 MOH     0.0372 ****
14766 O1     -0.454028   10.086427  -30.338134 O    2410 MOH    -0.6497 ****
14767 HO1    -0.645708   10.762078  -29.682646 H    2410 MOH     0.4215 ****
14768 HC1    -5.576280   12.689418  -19.434547 H    2411 MOH     0.0372 ****
14769 C1     -5.276635   11.642261  -19.449396 C    2411 MOH     0.1166 ****
14770 HC2    -4.642704   11.453651  -20.316309 H    2411 MOH     0.0372 ****
14771 HC3    -6.144392   10.988248  -19.528592 H    2411 MOH     0.0372 ****
14772 O1     -4.571690   11.331176  -18.255800 O    2411 MOH    -0.6497 ****
14773 HO1    -4.137523   10.482836  -18.374594 H    2411 MOH     0.4215 ****
14774 HC1     1.229525    7.341774  -31.842150 H    2412 MOH     0.0372 ****
14775 C1      0.549407    6.773084  -31.207875 C    2412 MOH     0.1166 ****
14776 HC2     0.903900    6.810234  -30.177620 H    2412 MOH     0.0372 ****
14777 HC3     0.494559    5.736541  -31.539508 H    2412 MOH     0.0372 ****
14778 O1     -0.683236    7.396071  -31.289899 O    2412 MOH    -0.6497 ****
14779 HO1    -0.581045    8.288910  -30.954024 H    2412 MOH     0.4215 ****
14780 HC1    -4.902512   13.805161  -26.858461 H    2413 MOH     0.0372 ****
14781 C1     -5.042808   13.650843  -27.927607 C    2413 MOH     0.1166 ****
14782 HC2    -5.239107   14.605327  -28.416925 H    2413 MOH     0.0372 ****
14783 HC3    -5.877079   12.971926  -28.103676 H    2413 MOH     0.0372 ****
14784 O1     -3.867323   13.096442  -28.479150 O    2413 MOH    -0.6497 ****
14785 HO1    -3.220690   12.995604  -27.776993 H    2413 MOH     0.4215 ****
14786 HC1     1.559192    7.716137  -26.613095 H    2414 MOH     0.0372 ****
14787 C1      1.392916    7.803094  -25.539000 C    2414 MOH     0.1166 ****
14788 HC2     1.465084    8.859233  -25.279492 H    2414 MOH     0.0372 ****
14789 HC3     2.179844    7.249101  -25.026347 H    2414 MOH     0.0372 ****
14790 O1      0.067319    7.284211  -25.304948 O    2414 MOH    -0.6497 ****
14791 HO1    -0.243873    7.632855  -24.466319 H    2414 MOH     0.4215 ****
14792 HC1     0.425276   25.113230  -17.432021 H    2415 MOH     0.0372 ****
14793 C1     -0.286019   24.287344  -17.442627 C    2415 MOH     0.1166 ****
14794 HC2     0.075979   23.556171  -18.165998 H    2415 MOH     0.0372 ****
14795 HC3    -1.275020   24.659666  -17.712742 H    2415 MOH     0.0372 ****
14796 O1     -0.349528   23.713755  -16.157814 O    2415 MOH    -0.6497 ****
14797 HO1    -0.625501   24.397571  -15.543339 H    2415 MOH     0.4215 ****
14798 HC1   -15.067341   16.286086  -23.414144 H    2416 MOH     0.0372 ****
14799 C1    -15.458784   15.516946  -24.078825 C    2416 MOH     0.1166 ****
14800 HC2   -14.959376   15.550830  -25.046854 H    2416 MOH     0.0372 ****
14801 HC3   -16.530346   15.679429  -24.203275 H    2416 MOH     0.0372 ****
14802 O1    -15.317911   14.250151  -23.494047 O    2416 MOH    -0.6497 ****
14803 HO1   -15.764202   14.249743  -22.644812 H    2416 MOH     0.4215 ****
14804 HC1     1.152738   13.854150  -27.794671 H    2417 MOH     0.0372 ****
14805 C1      1.135995   12.847002  -28.212571 C    2417 MOH     0.1166 ****
14806 HC2     1.637712   12.188497  -27.504757 H    2417 MOH     0.0372 ****
14807 HC3     1.687364   12.818425  -29.153023 H    2417 MOH     0.0372 ****
14808 O1     -0.206922   12.411401  -28.361770 O    2417 MOH    -0.6497 ****
14809 HO1    -0.698825   12.672272  -27.579003 H    2417 MOH     0.4215 ****
14810 HC1    -4.712564   17.645144  -28.662998 H    2418 MOH     0.0372 ****
14811 C1     -5.776043   17.846002  -28.794520 C    2418 MOH     0.1166 ****
14812 HC2    -6.358012   16.924994  -28.767650 H    2418 MOH     0.0372 ****
14813 HC3    -5.941165   18.316713  -29.763963 H    2418 MOH     0.0372 ****
14814 O1     -6.226376   18.736392  -27.815177 O    2418 MOH    -0.6497 ****
14815 HO1    -6.116102   19.630864  -28.145396 H    2418 MOH     0.4215 ****
14816 HC1    -5.232179    9.316879  -26.256006 H    2419 MOH     0.0372 ****
14817 C1     -5.418086    9.902715  -27.156153 C    2419 MOH     0.1166 ****
14818 HC2    -5.400188    9.278912  -28.049936 H    2419 MOH     0.0372 ****
14819 HC3    -4.670417   10.688185  -27.265048 H    2419 MOH     0.0372 ****
14820 O1     -6.660543   10.491001  -27.026753 O    2419 MOH    -0.6497 ****
14821 HO1    -6.959033   10.601636  -27.932556 H    2419 MOH     0.4215 ****
14822 HC1    -4.047456   12.891909  -24.836843 H    2420 MOH     0.0372 ****
14823 C1     -3.293437   12.138283  -25.064531 C    2420 MOH     0.1166 ****
14824 HC2    -3.779566   11.248710  -25.464047 H    2420 MOH     0.0372 ****
14825 HC3    -2.804421   11.848835  -24.134686 H    2420 MOH     0.0372 ****
14826 O1     -2.359284   12.680437  -26.009226 O    2420 MOH    -0.6497 ****
14827 HO1    -2.142778   13.578175  -25.749718 H    2420 MOH     0.4215 ****
14828 HC1    -8.110847    6.262365  -27.571225 H    2421 MOH     0.0372 ****
14829 C1     -8.517879    7.262982  -27.716182 C    2421 MOH     0.1166 ****
14830 HC2    -9.563461    7.217258  -28.021652 H    2421 MOH     0.0372 ****
14831 HC3    -7.961314    7.720628  -28.532890 H    2421 MOH     0.0372 ****
14832 O1     -8.363149    8.086827  -26.559355 O    2421 MOH    -0.6497 ****
14833 HO1    -8.080248    8.967010  -26.819570 H    2421 MOH     0.4215 ****
14834 HC1    -8.704941   10.667773  -25.348788 H    2422 MOH     0.0372 ****
14835 C1     -8.616606   11.653692  -24.892704 C    2422 MOH     0.1166 ****
14836 HC2    -9.217628   11.685536  -23.984779 H    2422 MOH     0.0372 ****
14837 HC3    -8.968790   12.388947  -25.616075 H    2422 MOH     0.0372 ****
14838 O1     -7.276576   11.857408  -24.585113 O    2422 MOH    -0.6497 ****
14839 HO1    -6.791602   11.390780  -25.268885 H    2422 MOH     0.4215 ****
14840 HC1    -4.408877   24.767852  -20.550362 H    2423 MOH     0.0372 ****
14841 C1     -4.451601   25.641912  -21.200193 C    2423 MOH     0.1166 ****
14842 HC2    -3.650816   26.342058  -20.961898 H    2423 MOH     0.0372 ****
14843 HC3    -5.390950   26.157938  -21.005031 H    2423 MOH     0.0372 ****
14844 O1     -4.451024   25.287552  -22.591779 O    2423 MOH    -0.6497 ****
14845 HO1    -4.341905   26.079962  -23.122816 H    2423 MOH     0.4215 ****
14846 HC1    -6.741372    5.830439  -24.534908 H    2424 MOH     0.0372 ****
14847 C1     -5.665192    5.838604  -24.704614 C    2424 MOH     0.1166 ****
14848 HC2    -5.244881    6.698783  -24.184890 H    2424 MOH     0.0372 ****
14849 HC3    -5.461387    5.899024  -25.773759 H    2424 MOH     0.0372 ****
14850 O1     -5.071675    4.693875  -24.203982 O    2424 MOH    -0.6497 ****
14851 HO1    -5.533556    4.432596  -23.404952 H    2424 MOH     0.4215 ****
14852 HC1   -10.926007   17.483886  -27.665270 H    2425 MOH     0.0372 ****
14853 C1     -9.894282   17.200153  -27.871038 C    2425 MOH     0.1166 ****
14854 HC2    -9.623505   16.374267  -27.214136 H    2425 MOH     0.0372 ****
14855 HC3    -9.245918   18.050943  -27.660320 H    2425 MOH     0.0372 ****
14856 O1     -9.756296   16.880903  -29.232926 O    2425 MOH    -0.6497 ****
14857 HO1   -10.053054   17.673721  -29.685474 H    2425 MOH     0.4215 ****
14858 HC1     0.699518   12.921711  -20.022153 H    2426 MOH     0.0372 ****
14859 C1      0.774573   13.963561  -20.331866 C    2426 MOH     0.1166 ****
14860 HC2     1.813226   14.188098  -20.575110 H    2426 MOH     0.0372 ****
14861 HC3     0.412575   14.564911  -19.496773 H    2426 MOH     0.0372 ****
14862 O1     -0.113391   14.121145  -21.408082 O    2426 MOH    -0.6497 ****
14863 HO1     0.253803   13.600628  -22.125796 H    2426 MOH     0.4215 ****
14864 HC1    -9.575585    9.009060  -19.473438 H    2427 MOH     0.0372 ****
14865 C1     -8.583120    9.029881  -19.923865 C    2427 MOH     0.1166 ****
14866 HC2    -8.060041    9.941091  -19.633951 H    2427 MOH     0.0372 ****
14867 HC3    -8.643164    8.974359  -21.009981 H    2427 MOH     0.0372 ****
14868 O1     -7.848153    7.965169  -19.475559 O    2427 MOH    -0.6497 ****
14869 HO1    -8.295022    7.169085  -19.771130 H    2427 MOH     0.4215 ****
14870 HC1   -11.635571   21.238546  -26.468138 H    2428 MOH     0.0372 ****
14871 C1    -11.875171   20.605761  -25.613953 C    2428 MOH     0.1166 ****
14872 HC2   -12.920752   20.730276  -25.333232 H    2428 MOH     0.0372 ****
14873 HC3   -11.242972   20.913172  -24.780275 H    2428 MOH     0.0372 ****
14874 O1    -11.573217   19.255684  -25.930030 O    2428 MOH    -0.6497 ****
14875 HO1   -12.035674   18.982566  -26.725525 H    2428 MOH     0.4215 ****
14876 HC1    -2.400276    9.612043  -23.947303 H    2429 MOH     0.0372 ****
14877 C1     -2.149128    9.091526  -23.023114 C    2429 MOH     0.1166 ****
14878 HC2    -2.815968    8.237879  -22.902199 H    2429 MOH     0.0372 ****
14879 HC3    -2.272104    9.761461  -22.172465 H    2429 MOH     0.0372 ****
14880 O1     -0.809098    8.660824  -23.119988 O    2429 MOH    -0.6497 ****
14881 HO1    -0.619150    8.105198  -22.361262 H    2429 MOH     0.4215 ****
14882 HC1   -10.874046   15.840278  -24.726534 H    2430 MOH     0.0372 ****
14883 C1    -11.883831   16.239545  -24.634611 C    2430 MOH     0.1166 ****
14884 HC2   -12.496400   15.498166  -24.121251 H    2430 MOH     0.0372 ****
14885 HC3   -12.285090   16.431422  -25.630217 H    2430 MOH     0.0372 ****
14886 O1    -11.815704   17.428364  -23.872349 O    2430 MOH    -0.6497 ****
14887 HO1   -11.481418   18.121570  -24.446520 H    2430 MOH     0.4215 ****
14888 HC1     1.584018    9.184198  -29.003116 H    2431 MOH     0.0372 ****
14889 C1      2.455240    9.687568  -29.422430 C    2431 MOH     0.1166 ****
14890 HC2     2.157327   10.636746  -29.865786 H    2431 MOH     0.0372 ****
14891 HC3     2.894026    9.076012  -30.211562 H    2431 MOH     0.0372 ****
14892 O1      3.424034    9.962728  -28.436724 O    2431 MOH    -0.6497 ****
14893 HO1     3.854160    9.124594  -28.253583 H    2431 MOH     0.4215 ****
14894 HC1    -8.443978   18.513897  -20.041952 H    2432 MOH     0.0372 ****
14895 C1     -7.836029   19.384690  -20.290146 C    2432 MOH     0.1166 ****
14896 HC2    -6.786406   19.115246  -20.404698 H    2432 MOH     0.0372 ****
14897 HC3    -7.892609   20.106881  -19.474852 H    2432 MOH     0.0372 ****
14898 O1     -8.230936   19.946848  -21.500006 O    2432 MOH    -0.6497 ****
14899 HO1    -7.949189   19.348356  -22.195799 H    2432 MOH     0.4215 ****
14900 HC1    -9.384482   10.769835  -29.840331 H    2433 MOH     0.0372 ****
14901 C1     -8.527694   10.511822  -30.463999 C    2433 MOH     0.1166 ****
14902 HC2    -8.341787   11.305048  -31.187369 H    2433 MOH     0.0372 ****
14903 HC3    -8.773645    9.607960  -31.021199 H    2433 MOH     0.0372 ****
14904 O1     -7.364333   10.321170  -29.662847 O    2433 MOH    -0.6497 ****
14905 HO1    -6.668049    9.973342  -30.224290 H    2433 MOH     0.4215 ****
14906 HC1    -3.329810   10.429764  -30.657039 H    2434 MOH     0.0372 ****
14907 C1     -3.828063    9.654092  -31.236866 C    2434 MOH     0.1166 ****
14908 HC2    -3.101179    8.908631  -31.559307 H    2434 MOH     0.0372 ****
14909 HC3    -4.290520   10.128068  -32.103072 H    2434 MOH     0.0372 ****
14910 O1     -4.803208    9.023348  -30.439957 O    2434 MOH    -0.6497 ****
14911 HO1    -4.331512    8.654292  -29.690424 H    2434 MOH     0.4215 ****
14912 HC1     0.010739   16.481637  -23.470006 H    2435 MOH     0.0372 ****
14913 C1     -0.611645   17.376109  -23.479198 C    2435 MOH     0.1166 ****
14914 HC2    -0.167662   18.163211  -22.869672 H    2435 MOH     0.0372 ****
14915 HC3    -1.583325   17.098091  -23.069783 H    2435 MOH     0.0372 ****
14916 O1     -0.791201   17.828856  -24.800781 O    2435 MOH    -0.6497 ****
14917 HO1     0.066165   18.104423  -25.133828 H    2435 MOH     0.4215 ****
14918 HC1    -4.360380   16.661266  -25.629510 H    2436 MOH     0.0372 ****
14919 C1     -3.906583   17.540633  -25.172719 C    2436 MOH     0.1166 ****
14920 HC2    -3.069425   17.857433  -25.794973 H    2436 MOH     0.0372 ****
14921 HC3    -3.602896   17.291601  -24.155899 H    2436 MOH     0.0372 ****
14922 O1     -4.856901   18.538391  -25.208074 O    2436 MOH    -0.6497 ****
14923 HO1    -5.184836   18.593913  -26.108928 H    2436 MOH     0.4215 ****
14924 HC1     3.002568   19.980324  -20.252670 H    2437 MOH     0.0372 ****
14925 C1      2.749689   20.844994  -19.638901 C    2437 MOH     0.1166 ****
14926 HC2     3.557402   21.028298  -18.931087 H    2437 MOH     0.0372 ****
14927 HC3     1.831702   20.612293  -19.100086 H    2437 MOH     0.0372 ****
14928 O1      2.557431   21.953388  -20.495207 O    2437 MOH    -0.6497 ****
14929 HO1     1.872116   21.682312  -21.110390 H    2437 MOH     0.4215 ****
14930 HC1    -0.738084   12.720853  -23.786789 H    2438 MOH     0.0372 ****
14931 C1      0.084640   12.030097  -23.972051 C    2438 MOH     0.1166 ****
14932 HC2     0.360036   12.151347  -25.019276 H    2438 MOH     0.0372 ****
14933 HC3    -0.223665   10.990289  -23.865278 H    2438 MOH     0.0372 ****
14934 O1      1.174677   12.340774  -23.087461 O    2438 MOH    -0.6497 ****
14935 HO1     1.785514   11.600212  -23.074733 H    2438 MOH     0.4215 ****
14936 HC1     4.096069   13.678604  -24.851692 H    2439 MOH     0.0372 ****
14937 C1      3.264685   14.362011  -25.021398 C    2439 MOH     0.1166 ****
14938 HC2     2.342657   13.901916  -24.664309 H    2439 MOH     0.0372 ****
14939 HC3     3.194248   14.550214  -26.092665 H    2439 MOH     0.0372 ****
14940 O1      3.592620   15.582674  -24.369445 O    2439 MOH    -0.6497 ****
14941 HO1     4.205766   15.385490  -23.657389 H    2439 MOH     0.4215 ****
14942 HC1    -3.397360   15.908048  -16.368532 H    2440 MOH     0.0372 ****
14943 C1     -4.288789   16.534709  -16.400352 C    2440 MOH     0.1166 ****
14944 HC2    -5.177331   15.903965  -16.440657 H    2440 MOH     0.0372 ****
14945 HC3    -4.279551   17.152797  -17.298378 H    2440 MOH     0.0372 ****
14946 O1     -4.278396   17.382232  -15.278881 O    2440 MOH    -0.6497 ****
14947 HO1    -3.522645   17.962353  -15.395553 H    2440 MOH     0.4215 ****
14948 HC1    -1.740364   17.169943  -17.782039 H    2441 MOH     0.0372 ****
14949 C1     -1.515775   18.235879  -17.731834 C    2441 MOH     0.1166 ****
14950 HC2    -1.874887   18.783749  -18.602990 H    2441 MOH     0.0372 ****
14951 HC3    -0.429779   18.282420  -17.803959 H    2441 MOH     0.0372 ****
14952 O1     -1.876619   18.833963  -16.465406 O    2441 MOH    -0.6497 ****
14953 HO1    -1.948788   19.782732  -16.591271 H    2441 MOH     0.4215 ****
14954 HC1    -2.653733    3.718978  -26.414398 H    2442 MOH     0.0372 ****
14955 C1     -2.072341    4.476279  -25.887604 C    2442 MOH     0.1166 ****
14956 HC2    -1.018677    4.232147  -26.024782 H    2442 MOH     0.0372 ****
14957 HC3    -2.302126    4.486893  -24.822701 H    2442 MOH     0.0372 ****
14958 O1     -2.200513    5.736542  -26.439854 O    2442 MOH    -0.6497 ****
14959 HO1    -1.402037    6.212967  -26.198731 H    2442 MOH     0.4215 ****
14960 HC1    -7.498279   15.076038  -21.332422 H    2443 MOH     0.0372 ****
14961 C1     -7.153023   14.233005  -21.929927 C    2443 MOH     0.1166 ****
14962 HC2    -6.412860   13.701057  -21.331008 H    2443 MOH     0.0372 ****
14963 HC3    -6.711350   14.618800  -22.848459 H    2443 MOH     0.0372 ****
14964 O1     -8.205533   13.315263  -22.263681 O    2443 MOH    -0.6497 ****
14965 HO1    -7.926673   12.802095  -23.025235 H    2443 MOH     0.4215 ****
14966 HC1    -2.433185    3.396462  -31.077060 H    2444 MOH     0.0372 ****
14967 C1     -2.466094    4.481586  -31.176055 C    2444 MOH     0.1166 ****
14968 HC2    -2.020957    4.950664  -30.298536 H    2444 MOH     0.0372 ****
14969 HC3    -3.503592    4.807368  -31.251009 H    2444 MOH     0.0372 ****
14970 O1     -1.780202    4.858808  -32.341367 O    2444 MOH    -0.6497 ****
14971 HO1    -1.678588    5.812067  -32.301062 H    2444 MOH     0.4215 ****
14972 HC1    -1.465546   16.777208  -27.909222 H    2445 MOH     0.0372 ****
14973 C1     -0.802170   15.955404  -27.639814 C    2445 MOH     0.1166 ****
14974 HC2     0.213966   16.341607  -27.562032 H    2445 MOH     0.0372 ****
14975 HC3    -0.816027   15.172792  -28.398540 H    2445 MOH     0.0372 ****
14976 O1     -1.180335   15.528377  -26.352880 O    2445 MOH    -0.6497 ****
14977 HO1    -1.126641   16.297517  -25.781538 H    2445 MOH     0.4215 ****
14978 HC1    -0.540631   25.187531  -21.875480 H    2446 MOH     0.0372 ****
14979 C1     -0.852400   24.768669  -20.918057 C    2446 MOH     0.1166 ****
14980 HC2    -1.379521   25.514946  -20.325502 H    2446 MOH     0.0372 ****
14981 HC3     0.040184   24.435130  -20.389848 H    2446 MOH     0.0372 ****
14982 O1     -1.667041   23.654559  -21.145039 O    2446 MOH    -0.6497 ****
14983 HO1    -2.352933   23.895834  -21.770828 H    2446 MOH     0.4215 ****
14984 HC1   -14.979006   10.404861  -29.590015 H    2447 MOH     0.0372 ****
14985 C1    -14.335260   11.189106  -29.986702 C    2447 MOH     0.1166 ****
14986 HC2   -14.301197   11.990497  -29.249189 H    2447 MOH     0.0372 ****
14987 HC3   -14.734210   11.629197  -30.901698 H    2447 MOH     0.0372 ****
14988 O1    -13.023521   10.724519  -30.217219 O    2447 MOH    -0.6497 ****
14989 HO1   -12.581270   11.511622  -30.542488 H    2447 MOH     0.4215 ****
14990 HC1    -5.703297   22.111789  -23.083218 H    2448 MOH     0.0372 ****
14991 C1     -5.121328   22.354288  -23.972759 C    2448 MOH     0.1166 ****
14992 HC2    -5.157701   21.532484  -24.687644 H    2448 MOH     0.0372 ****
14993 HC3    -4.094221   22.497583  -23.635469 H    2448 MOH     0.0372 ****
14994 O1     -5.587249   23.598629  -24.504503 O    2448 MOH    -0.6497 ****
14995 HO1    -5.171557   24.275913  -23.966395 H    2448 MOH     0.4215 ****
14996 HC1    -8.208997   17.545532  -25.411721 H    2449 MOH     0.0372 ****
14997 C1     -8.046184   17.321403  -24.357425 C    2449 MOH     0.1166 ****
14998 HC2    -7.478649   16.394680  -24.265501 H    2449 MOH     0.0372 ****
14999 HC3    -9.029989   17.203828  -23.903462 H    2449 MOH     0.0372 ****
15000 O1     -7.353364   18.397954  -23.765576 O    2449 MOH    -0.6497 ****
15001 HO1    -6.515051   18.488585  -24.223781 H    2449 MOH     0.4215 ****
15002 HC1   -10.273601   11.479370  -20.652185 H    2450 MOH     0.0372 ****
15003 C1    -10.666777   11.914155  -19.733653 C    2450 MOH     0.1166 ****
15004 HC2   -10.850952   12.978866  -19.875075 H    2450 MOH     0.0372 ****
15005 HC3    -9.967606   11.770043  -18.909874 H    2450 MOH     0.0372 ****
15006 O1    -11.831292   11.253201  -19.404849 O    2450 MOH    -0.6497 ****
15007 HO1   -12.255645   11.702682  -18.670165 H    2450 MOH     0.4215 ****
15008 HC1    -6.299699    8.166027  -35.789927 H    2451 MOH     0.0372 ****
15009 C1     -7.036398    8.511813  -35.065143 C    2451 MOH     0.1166 ****
15010 HC2    -7.307176    7.703890  -34.384199 H    2451 MOH     0.0372 ****
15011 HC3    -7.945148    8.811468  -35.585573 H    2451 MOH     0.0372 ****
15012 O1     -6.596457    9.593263  -34.271062 O    2451 MOH    -0.6497 ****
15013 HO1    -5.649026    9.524677  -34.135297 H    2451 MOH     0.4215 ****
15014 HC1    -7.462483    5.915354  -30.027714 H    2452 MOH     0.0372 ****
15015 C1     -6.427294    6.219499  -30.183984 C    2452 MOH     0.1166 ****
15016 HC2    -5.838397    5.316862  -30.351569 H    2452 MOH     0.0372 ****
15017 HC3    -6.054326    6.776350  -29.325557 H    2452 MOH     0.0372 ****
15018 O1     -6.429603    6.951080  -31.360610 O    2452 MOH    -0.6497 ****
15019 HO1    -5.792209    7.660207  -31.251009 H    2452 MOH     0.4215 ****
15020 HC1     5.600067   11.107456  -25.456976 H    2453 MOH     0.0372 ****
15021 C1      5.984005   11.704315  -26.284290 C    2453 MOH     0.1166 ****
15022 HC2     6.671629   11.087044  -26.862704 H    2453 MOH     0.0372 ****
15023 HC3     6.485145   12.566127  -25.842349 H    2453 MOH     0.0372 ****
15024 O1      4.918794   12.143998  -27.071300 O    2453 MOH    -0.6497 ****
15025 HO1     4.389363   11.387923  -27.332930 H    2453 MOH     0.4215 ****
15026 HC1    -3.933718   20.103615  -20.856539 H    2454 MOH     0.0372 ****
15027 C1     -3.870210   19.180566  -21.432831 C    2454 MOH     0.1166 ****
15028 HC2    -2.838485   18.976442  -21.718502 H    2454 MOH     0.0372 ****
15029 HC3    -4.487397   19.292426  -22.323786 H    2454 MOH     0.0372 ****
15030 O1     -4.388093   18.127285  -20.667741 O    2454 MOH    -0.6497 ****
15031 HO1    -4.138100   17.302624  -21.092005 H    2454 MOH     0.4215 ****
15032 HC1     3.627838   18.777625  -22.300451 H    2455 MOH     0.0372 ****
15033 C1      4.486358   19.139333  -22.866136 C    2455 MOH     0.1166 ****
15034 HC2     4.138216   19.658625  -23.758505 H    2455 MOH     0.0372 ****
15035 HC3     5.115670   18.298750  -23.159586 H    2455 MOH     0.0372 ****
15036 O1      5.235759   20.028906  -22.070641 O    2455 MOH    -0.6497 ****
15037 HO1     5.403190   19.610451  -21.222820 H    2455 MOH     0.4215 ****
15038 HC1   -10.625208   25.039745  -27.586074 H    2456 MOH     0.0372 ****
15039 C1    -10.995867   24.642928  -26.641380 C    2456 MOH     0.1166 ****
15040 HC2   -10.141388   24.520045  -25.975992 H    2456 MOH     0.0372 ****
15041 HC3   -11.467562   23.667215  -26.757345 H    2456 MOH     0.0372 ****
15042 O1    -11.850922   25.578225  -26.079230 O    2456 MOH    -0.6497 ****
15043 HO1   -11.666170   25.579858  -25.137364 H    2456 MOH     0.4215 ****
15044 HC1   -10.741255   11.985190  -15.434444 H    2457 MOH     0.0372 ****
15045 C1     -9.846940   11.542649  -14.994624 C    2457 MOH     0.1166 ****
15046 HC2    -9.781122   11.815767  -13.941742 H    2457 MOH     0.0372 ****
15047 HC3    -8.956666   11.912522  -15.503741 H    2457 MOH     0.0372 ****
15048 O1     -9.898324   10.130110  -15.110589 O    2457 MOH    -0.6497 ****
15049 HO1    -8.993039    9.821882  -15.022201 H    2457 MOH     0.4215 ****
15050 HC1   -11.337081   20.364894  -21.847903 H    2458 MOH     0.0372 ****
15051 C1    -11.403476   20.104432  -20.791485 C    2458 MOH     0.1166 ****
15052 HC2   -11.295511   19.026248  -20.667741 H    2458 MOH     0.0372 ****
15053 HC3   -12.387281   20.419191  -20.442882 H    2458 MOH     0.0372 ****
15054 O1    -10.419671   20.823357  -20.068115 O    2458 MOH    -0.6497 ****
15055 HO1    -9.596947   20.714355  -20.551069 H    2458 MOH     0.4215 ****
15056 HC1    -3.790535   22.925836  -16.999271 H    2459 MOH     0.0372 ****
15057 C1     -3.352904   22.022382  -17.424243 C    2459 MOH     0.1166 ****
15058 HC2    -3.109262   22.217525  -18.467932 H    2459 MOH     0.0372 ****
15059 HC3    -4.058426   21.196088  -17.330905 H    2459 MOH     0.0372 ****
15060 O1     -2.216678   21.724769  -16.676831 O    2459 MOH    -0.6497 ****
15061 HO1    -1.589099   22.450635  -16.724914 H    2459 MOH     0.4215 ****
15062 HC1    -7.010418   15.728010  -17.632132 H    2460 MOH     0.0372 ****
15063 C1     -7.420914   14.771484  -17.308984 C    2460 MOH     0.1166 ****
15064 HC2    -6.642068   14.008877  -17.287771 H    2460 MOH     0.0372 ****
15065 HC3    -8.206110   14.492651  -18.011141 H    2460 MOH     0.0372 ****
15066 O1     -8.016739   14.916004  -16.053163 O    2460 MOH    -0.6497 ****
15067 HO1    -7.396088   15.365078  -15.474749 H    2460 MOH     0.4215 ****
15068 HC1   -10.236074   10.835563  -33.365258 H    2461 MOH     0.0372 ****
15069 C1    -11.118265   11.418949  -33.104336 C    2461 MOH     0.1166 ****
15070 HC2   -10.814001   12.417525  -32.793209 H    2461 MOH     0.0372 ****
15071 HC3   -11.653468   10.929051  -32.291163 H    2461 MOH     0.0372 ****
15072 O1    -11.939257   11.474063  -34.271769 O    2461 MOH    -0.6497 ****
15073 HO1   -12.029901   10.585306  -34.624615 H    2461 MOH     0.4215 ****
15074 HC1    -2.699343    1.843078  -27.914172 H    2462 MOH     0.0372 ****
15075 C1     -1.861608    2.071288  -28.573902 C    2462 MOH     0.1166 ****
15076 HC2    -1.504228    3.072721  -28.338436 H    2462 MOH     0.0372 ****
15077 HC3    -2.212060    2.026381  -29.604864 H    2462 MOH     0.0372 ****
15078 O1     -0.780808    1.129460  -28.369548 O    2462 MOH    -0.6497 ****
15079 HO1     0.052308    1.517704  -28.647441 H    2462 MOH     0.4215 ****
15080 HC1    -8.505755   12.698400  -28.298838 H    2463 MOH     0.0372 ****
15081 C1     -8.817524   13.741882  -28.334193 C    2463 MOH     0.1166 ****
15082 HC2    -8.011543   14.399162  -28.006096 H    2463 MOH     0.0372 ****
15083 HC3    -9.660455   13.865173  -27.655371 H    2463 MOH     0.0372 ****
15084 O1     -9.270744   14.088077  -29.628199 O    2463 MOH    -0.6497 ****
15085 HO1    -9.482054   15.023782  -29.598500 H    2463 MOH     0.4215 ****
15086 HC1    -1.809646   20.711905  -20.801385 H    2464 MOH     0.0372 ****
15087 C1     -0.884154   21.011560  -20.307824 C    2464 MOH     0.1166 ****
15088 HC2    -0.440172   20.157504  -19.795879 H    2464 MOH     0.0372 ****
15089 HC3    -1.130105   21.763553  -19.558291 H    2464 MOH     0.0372 ****
15090 O1     -0.001963   21.510847  -21.333836 O    2464 MOH    -0.6497 ****
15091 HO1    -0.192488   22.449002  -21.408789 H    2464 MOH     0.4215 ****
15092 HC1   -12.780456   11.869247  -27.482130 H    2465 MOH     0.0372 ****
15093 C1    -12.009116   11.576125  -26.769366 C    2465 MOH     0.1166 ****
15094 HC2   -11.111337   11.319745  -27.332223 H    2465 MOH     0.0372 ****
15095 HC3   -12.339361   10.687777  -26.230551 H    2465 MOH     0.0372 ****
15096 O1    -11.748731   12.653492  -25.860734 O    2465 MOH    -0.6497 ****
15097 HO1   -12.414994   12.628589  -25.169890 H    2465 MOH     0.4215 ****
15098 HC1   -12.909783   12.479987  -21.599001 H    2466 MOH     0.0372 ****
15099 C1    -12.426541   12.329343  -22.564202 C    2466 MOH     0.1166 ****
15100 HC2   -11.971011   11.339749  -22.584001 H    2466 MOH     0.0372 ****
15101 HC3   -11.666170   13.098483  -22.702795 H    2466 MOH     0.0372 ****
15102 O1    -13.457688   12.378741  -23.550616 O    2466 MOH    -0.6497 ****
15103 HO1   -13.970375   13.179724  -23.420508 H    2466 MOH     0.4215 ****
15104 HC1   -17.209887   13.907631  -27.932557 H    2467 MOH     0.0372 ****
15105 C1    -16.622145   14.823332  -27.871038 C    2467 MOH     0.1166 ****
15106 HC2   -16.156223   15.033988  -28.834118 H    2467 MOH     0.0372 ****
15107 HC3   -15.833484   14.674730  -27.134233 H    2467 MOH     0.0372 ****
15108 O1    -17.403877   15.948056  -27.495565 O    2467 MOH    -0.6497 ****
15109 HO1   -17.803981   15.783940  -26.638551 H    2467 MOH     0.4215 ****
15110 HC1     2.022689   25.411496  -19.473438 H    2468 MOH     0.0372 ****
15111 C1      3.015154   25.432317  -19.923865 C    2468 MOH     0.1166 ****
15112 HC2     3.538234   26.343527  -19.633951 H    2468 MOH     0.0372 ****
15113 HC3     2.955110   25.376795  -21.009981 H    2468 MOH     0.0372 ****
15114 O1      3.750121   24.367605  -19.475559 O    2468 MOH    -0.6497 ****
15115 HO1     3.303252   23.571521  -19.771130 H    2468 MOH     0.4215 ****
15116 HC1     1.324673   27.881807  -20.652185 H    2469 MOH     0.0372 ****
15117 C1      0.931497   28.316591  -19.733653 C    2469 MOH     0.1166 ****
15118 HC2     0.747322   29.381303  -19.875075 H    2469 MOH     0.0372 ****
15119 HC3     1.630668   28.172480  -18.909874 H    2469 MOH     0.0372 ****
15120 O1     -0.233018   27.655637  -19.404849 O    2469 MOH    -0.6497 ****
15121 HO1    -0.657371   28.105119  -18.670165 H    2469 MOH     0.4215 ****
15122 HC1     0.857019   28.387626  -15.434444 H    2470 MOH     0.0372 ****
15123 C1      1.751334   27.945085  -14.994624 C    2470 MOH     0.1166 ****
15124 HC2     1.817152   28.218203  -13.941742 H    2470 MOH     0.0372 ****
15125 HC3     2.641609   28.314958  -15.503741 H    2470 MOH     0.0372 ****
15126 O1      1.699950   26.532546  -15.110589 O    2470 MOH    -0.6497 ****
15127 HO1     2.605235   26.224319  -15.022201 H    2470 MOH     0.4215 ****
15128 HC1     4.587856   32.130447  -17.632132 H    2471 MOH     0.0372 ****
15129 C1      4.177360   31.173921  -17.308984 C    2471 MOH     0.1166 ****
15130 HC2     4.956206   30.411313  -17.287771 H    2471 MOH     0.0372 ****
15131 HC3     3.392164   30.895087  -18.011141 H    2471 MOH     0.0372 ****
15132 O1      3.581535   31.318441  -16.053163 O    2471 MOH    -0.6497 ****
15133 HO1     4.202186   31.767514  -15.474749 H    2471 MOH     0.4215 ****
15134 HC1     0.425277    0.509575  -31.636947 H    2472 MOH     0.0372 ****
15135 C1     -0.286019   -0.316311  -31.647554 C    2472 MOH     0.1166 ****
15136 HC2     0.075980   -1.047484  -32.370924 H    2472 MOH     0.0372 ****
15137 HC3    -1.275020    0.056011  -31.917669 H    2472 MOH     0.0372 ****
15138 O1     -0.349528   -0.889900  -30.362741 O    2472 MOH    -0.6497 ****
15139 HO1    -0.625501   -0.206084  -29.748265 H    2472 MOH     0.4215 ****
15140 HC1     3.002568   -4.623330  -34.457596 H    2473 MOH     0.0372 ****
15141 C1      2.749689   -3.758661  -33.843828 C    2473 MOH     0.1166 ****
15142 HC2     3.557402   -3.575357  -33.136014 H    2473 MOH     0.0372 ****
15143 HC3     1.831702   -3.991362  -33.305012 H    2473 MOH     0.0372 ****
15144 O1      2.557431   -2.650266  -34.700134 O    2473 MOH    -0.6497 ****
15145 HO1     1.872116   -2.921343  -35.315317 H    2473 MOH     0.4215 ****
15146 HC1    -3.397360   -8.695607  -30.573459 H    2474 MOH     0.0372 ****
15147 C1     -4.288788   -8.068946  -30.605279 C    2474 MOH     0.1166 ****
15148 HC2    -5.177331   -8.699690  -30.645584 H    2474 MOH     0.0372 ****
15149 HC3    -4.279551   -7.450858  -31.503304 H    2474 MOH     0.0372 ****
15150 O1     -4.278396   -7.221423  -29.483807 O    2474 MOH    -0.6497 ****
15151 HO1    -3.522645   -6.641302  -29.600480 H    2474 MOH     0.4215 ****
15152 HC1    -1.740364   -7.433712  -31.986965 H    2475 MOH     0.0372 ****
15153 C1     -1.515775   -6.367775  -31.936761 C    2475 MOH     0.1166 ****
15154 HC2    -1.874887   -5.819906  -32.807916 H    2475 MOH     0.0372 ****
15155 HC3    -0.429779   -6.321235  -32.008885 H    2475 MOH     0.0372 ****
15156 O1     -1.876619   -5.769692  -30.670332 O    2475 MOH    -0.6497 ****
15157 HO1    -1.948788   -4.820923  -30.796197 H    2475 MOH     0.4215 ****
15158 HC1    -0.540630    0.583876  -36.080406 H    2476 MOH     0.0372 ****
15159 C1     -0.852400    0.165014  -35.122984 C    2476 MOH     0.1166 ****
15160 HC2    -1.379520    0.911292  -34.530428 H    2476 MOH     0.0372 ****
15161 HC3     0.040184   -0.168525  -34.594775 H    2476 MOH     0.0372 ****
15162 O1     -1.667041   -0.949096  -35.349965 O    2476 MOH    -0.6497 ****
15163 HO1    -2.352933   -0.707821  -35.975755 H    2476 MOH     0.4215 ****
15164 HC1    -3.790535   -1.677819  -31.204198 H    2477 MOH     0.0372 ****
15165 C1     -3.352904   -2.581273  -31.629169 C    2477 MOH     0.1166 ****
15166 HC2    -3.109262   -2.386130  -32.672859 H    2477 MOH     0.0372 ****
15167 HC3    -4.058426   -3.407567  -31.535831 H    2477 MOH     0.0372 ****
15168 O1     -2.216678   -2.878886  -30.881757 O    2477 MOH    -0.6497 ****
15169 HO1    -1.589099   -2.153020  -30.929841 H    2477 MOH     0.4215 ****
15170 HC1    -1.809646   -3.891750  -35.006311 H    2478 MOH     0.0372 ****
15171 C1     -0.884154   -3.592095  -34.512751 C    2478 MOH     0.1166 ****
15172 HC2    -0.440172   -4.446151  -34.000805 H    2478 MOH     0.0372 ****
15173 HC3    -1.130105   -2.840102  -33.763217 H    2478 MOH     0.0372 ****
15174 O1     -0.001963   -3.092808  -35.538763 O    2478 MOH    -0.6497 ****
15175 HO1    -0.192488   -2.154653  -35.613716 H    2478 MOH     0.4215 ****
15176 HC1     2.022689    0.807841  -33.678365 H    2479 MOH     0.0372 ****
15177 C1      3.015154    0.828662  -34.128792 C    2479 MOH     0.1166 ****
15178 HC2     3.538234    1.739872  -33.838878 H    2479 MOH     0.0372 ****
15179 HC3     2.955110    0.773140  -35.214908 H    2479 MOH     0.0372 ****
15180 O1      3.750121   -0.236049  -33.680486 O    2479 MOH    -0.6497 ****
15181 HO1     3.303252   -1.032134  -33.976057 H    2479 MOH     0.4215 ****
15182 HC1     1.324673    3.278152  -34.857112 H    2480 MOH     0.0372 ****
15183 C1      0.931497    3.712936  -33.938580 C    2480 MOH     0.1166 ****
15184 HC2     0.747323    4.777648  -34.080001 H    2480 MOH     0.0372 ****
15185 HC3     1.630668    3.568825  -33.114801 H    2480 MOH     0.0372 ****
15186 O1     -0.233018    3.051982  -33.609775 O    2480 MOH    -0.6497 ****
15187 HO1    -0.657371    3.501464  -32.875091 H    2480 MOH     0.4215 ****
15188 HC1     0.857019    3.783972  -29.639371 H    2481 MOH     0.0372 ****
15189 C1      1.751335    3.341430  -29.199550 C    2481 MOH     0.1166 ****
15190 HC2     1.817153    3.614549  -28.146668 H    2481 MOH     0.0372 ****
15191 HC3     2.641609    3.711303  -29.708667 H    2481 MOH     0.0372 ****
15192 O1      1.699950    1.928891  -29.315516 O    2481 MOH    -0.6497 ****
15193 HO1     2.605236    1.620664  -29.227127 H    2481 MOH     0.4215 ****
15194 HC1     4.587856    7.526792  -31.837059 H    2482 MOH     0.0372 ****
15195 C1      4.177360    6.570266  -31.513911 C    2482 MOH     0.1166 ****
15196 HC2     4.956206    5.807658  -31.492698 H    2482 MOH     0.0372 ****
15197 HC3     3.392164    6.291433  -32.216068 H    2482 MOH     0.0372 ****
15198 O1      3.581535    6.714786  -30.258089 O    2482 MOH    -0.6497 ****
15199 HO1     4.202186    7.163859  -29.679676 H    2482 MOH     0.4215 ****
@<TRIPOS>BOND
    1   354   353 1
    2   355   353 1
    3   356   353 1
    4   357   356 1
    5   358   357 1
    6   359   358 1
    7   360   359 1
    8   361   360 1
    9   362   361 1
   10   362   358 1
   11   363   362 1
   12   364   360 1
   13   365   360 1
   14   366   359 1
   15   367   359 1
   16   368   358 1
   17   369   357 1
   18   370   356 1
   19   309   308 1
   20   310   308 1
   21   311   310 1
   22   312   310 1
   23   313   312 1
   24   314   313 1
   25   315   314 1
   26   316   315 1
   27   317   316 1
   28   318   317 1
   29   319   318 1
   30   320   318 1
   31   321   320 1
   32   322   321 1
   33   323   321 1
   34   324   321 1
   35   325   317 1
   36   326   317 1
   37   327   316 1
   38   328   316 1
   39   329   314 1
   40   330   314 1
   41   331   313 1
   42   332   313 1
   43   333   312 1
   44   334   312 1
   45   335   334 1
   46   336   334 1
   47   337   336 1
   48   338   336 1
   49   339   338 1
   50   340   338 1
   51   341   338 1
   52   342   341 1
   53   343   341 1
   54   344   341 1
   55   345   344 1
   56   346   345 1
   57   347   345 1
   58   348   347 1
   59   349   347 1
   60   350   347 1
   61   350   353 1
   62   351   350 1
   63   352   350 1
   64   258   257 1
   65   259   257 1
   66   260   259 1
   67   261   259 1
   68   262   261 1
   69   263   262 1
   70   264   263 1
   71   265   264 1
   72   266   265 1
   73   267   266 1
   74   268   267 1
   75   269   268 1
   76   270   269 1
   77   271   270 1
   78   272   271 1
   79   272   267 1
   80   273   271 1
   81   274   270 1
   82   275   269 1
   83   276   268 1
   84   277   266 1
   85   278   266 1
   86   279   265 1
   87   280   265 1
   88   281   263 1
   89   282   263 1
   90   283   262 1
   91   284   262 1
   92   285   261 1
   93   286   261 1
   94   287   286 1
   95   288   286 1
   96   289   288 1
   97   290   288 1
   98   291   290 1
   99   292   290 1
  100   293   290 1
  101   294   293 1
  102   295   293 1
  103   296   293 1
  104   297   296 1
  105   298   297 1
  106   299   297 1
  107   300   299 1
  108   301   299 1
  109   302   299 1
  110   303   302 1
  111   304   302 1
  112   305   302 1
  113   305   308 1
  114   306   305 1
  115   307   305 1
  116   210   209 1
  117   211   209 1
  118   212   211 1
  119   213   211 1
  120   214   213 1
  121   215   214 1
  122   216   215 1
  123   217   216 1
  124   218   217 1
  125   219   218 1
  126   220   219 1
  127   221   219 1
  128   222   221 1
  129   223   222 1
  130   224   222 1
  131   225   222 1
  132   226   218 1
  133   227   218 1
  134   228   217 1
  135   229   217 1
  136   230   215 1
  137   231   215 1
  138   232   214 1
  139   233   214 1
  140   234   213 1
  141   235   213 1
  142   236   235 1
  143   237   235 1
  144   238   237 1
  145   239   237 1
  146   240   239 1
  147   241   239 1
  148   242   239 1
  149   243   242 1
  150   244   242 1
  151   245   242 1
  152   246   245 1
  153   247   246 1
  154   248   246 1
  155   249   248 1
  156   250   248 1
  157   251   248 1
  158   252   251 1
  159   253   251 1
  160   254   251 1
  161   254   257 1
  162   255   254 1
  163   256   254 1
  164   162   161 1
  165   163   161 1
  166   164   163 1
  167   165   163 1
  168   166   165 1
  169   167   166 1
  170   168   167 1
  171   169   168 1
  172   170   169 1
  173   171   170 1
  174   172   171 1
  175   173   171 1
  176   174   173 1
  177   175   174 1
  178   176   174 1
  179   177   174 1
  180   178   170 1
  181   179   170 1
  182   180   169 1
  183   181   169 1
  184   182   167 1
  185   183   167 1
  186   184   166 1
  187   185   166 1
  188   186   165 1
  189   187   165 1
  190   188   187 1
  191   189   187 1
  192   190   189 1
  193   191   189 1
  194   192   191 1
  195   193   191 1
  196   194   191 1
  197   195   194 1
  198   196   194 1
  199   197   194 1
  200   198   197 1
  201   199   198 1
  202   200   198 1
  203   201   200 1
  204   202   200 1
  205   203   200 1
  206   204   203 1
  207   205   203 1
  208   206   203 1
  209   206   209 1
  210   207   206 1
  211   208   206 1
  212   114   113 1
  213   115   113 1
  214   116   115 1
  215   117   115 1
  216   118   117 1
  217   119   118 1
  218   120   119 1
  219   121   120 1
  220   122   121 1
  221   123   122 1
  222   124   123 1
  223   125   123 1
  224   126   125 1
  225   127   126 1
  226   128   126 1
  227   129   126 1
  228   130   122 1
  229   131   122 1
  230   132   121 1
  231   133   121 1
  232   134   119 1
  233   135   119 1
  234   136   118 1
  235   137   118 1
  236   138   117 1
  237   139   117 1
  238   140   139 1
  239   141   139 1
  240   142   141 1
  241   143   141 1
  242   144   143 1
  243   145   143 1
  244   146   143 1
  245   147   146 1
  246   148   146 1
  247   149   146 1
  248   150   149 1
  249   151   150 1
  250   152   150 1
  251   153   152 1
  252   154   152 1
  253   155   152 1
  254   156   155 1
  255   157   155 1
  256   158   155 1
  257   158   161 1
  258   159   158 1
  259   160   158 1
  260    66    65 1
  261    67    65 1
  262    68    67 1
  263    69    67 1
  264    70    69 1
  265    71    70 1
  266    72    71 1
  267    73    72 1
  268    74    73 1
  269    75    74 1
  270    76    75 1
  271    77    75 1
  272    78    77 1
  273    79    78 1
  274    80    78 1
  275    81    78 1
  276    82    74 1
  277    83    74 1
  278    84    73 1
  279    85    73 1
  280    86    71 1
  281    87    71 1
  282    88    70 1
  283    89    70 1
  284    90    69 1
  285    91    69 1
  286    92    91 1
  287    93    91 1
  288    94    93 1
  289    95    93 1
  290    96    95 1
  291    97    95 1
  292    98    95 1
  293    99    98 1
  294   100    98 1
  295   101    98 1
  296   102   101 1
  297   103   102 1
  298   104   102 1
  299   105   104 1
  300   106   104 1
  301   107   104 1
  302   108   107 1
  303   109   107 1
  304   110   107 1
  305   110   113 1
  306   111   110 1
  307   112   110 1
  308    15    14 1
  309    16    14 1
  310    17    16 1
  311    18    16 1
  312    19    18 1
  313    20    19 1
  314    21    20 1
  315    22    21 1
  316    23    22 1
  317    24    23 1
  318    25    24 1
  319    26    25 1
  320    27    26 1
  321    28    27 1
  322    29    28 1
  323    29    24 1
  324    30    28 1
  325    31    27 1
  326    32    26 1
  327    33    25 1
  328    34    23 1
  329    35    23 1
  330    36    22 1
  331    37    22 1
  332    38    20 1
  333    39    20 1
  334    40    19 1
  335    41    19 1
  336    42    18 1
  337    43    18 1
  338    44    43 1
  339    45    43 1
  340    46    45 1
  341    47    45 1
  342    48    47 1
  343    49    47 1
  344    50    47 1
  345    51    50 1
  346    52    50 1
  347    53    50 1
  348    54    53 1
  349    55    54 1
  350    56    54 1
  351    57    56 1
  352    58    56 1
  353    59    56 1
  354    60    59 1
  355    61    59 1
  356    62    59 1
  357    62    65 1
  358    63    62 1
  359    64    62 1
  360     2     1 1
  361     3     1 1
  362     4     3 1
  363     5     3 1
  364     6     5 1
  365     7     5 1
  366     8     5 1
  367     9     8 1
  368    10     8 1
  369    11     8 1
  370    11    14 1
  371    12    11 1
  372    13    11 1
  373   372   371 1
  374   373   371 1
  375   374   371 1
  376   375   371 1
  377   376   371 1
  378   377   371 1
  379   381   380 1
  380   382   381 1
  381   383   381 1
  382   384   381 1
  383   385   384 1
  384   387   386 1
  385   388   387 1
  386   389   387 1
  387   390   387 1
  388   391   390 1
  389   393   392 1
  390   394   393 1
  391   395   393 1
  392   396   393 1
  393   397   396 1
  394   399   398 1
  395   400   399 1
  396   401   399 1
  397   402   399 1
  398   403   402 1
  399   405   404 1
  400   406   405 1
  401   407   405 1
  402   408   405 1
  403   409   408 1
  404   411   410 1
  405   412   411 1
  406   413   411 1
  407   414   411 1
  408   415   414 1
  409   417   416 1
  410   418   417 1
  411   419   417 1
  412   420   417 1
  413   421   420 1
  414   423   422 1
  415   424   423 1
  416   425   423 1
  417   426   423 1
  418   427   426 1
  419   429   428 1
  420   430   429 1
  421   431   429 1
  422   432   429 1
  423   433   432 1
  424   435   434 1
  425   436   435 1
  426   437   435 1
  427   438   435 1
  428   439   438 1
  429   441   440 1
  430   442   441 1
  431   443   441 1
  432   444   441 1
  433   445   444 1
  434   447   446 1
  435   448   447 1
  436   449   447 1
  437   450   447 1
  438   451   450 1
  439   453   452 1
  440   454   453 1
  441   455   453 1
  442   456   453 1
  443   457   456 1
  444   459   458 1
  445   460   459 1
  446   461   459 1
  447   462   459 1
  448   463   462 1
  449   465   464 1
  450   466   465 1
  451   467   465 1
  452   468   465 1
  453   469   468 1
  454   471   470 1
  455   472   471 1
  456   473   471 1
  457   474   471 1
  458   475   474 1
  459   477   476 1
  460   478   477 1
  461   479   477 1
  462   480   477 1
  463   481   480 1
  464   483   482 1
  465   484   483 1
  466   485   483 1
  467   486   483 1
  468   487   486 1
  469   489   488 1
  470   490   489 1
  471   491   489 1
  472   492   489 1
  473   493   492 1
  474   495   494 1
  475   496   495 1
  476   497   495 1
  477   498   495 1
  478   499   498 1
  479   501   500 1
  480   502   501 1
  481   503   501 1
  482   504   501 1
  483   505   504 1
  484   507   506 1
  485   508   507 1
  486   509   507 1
  487   510   507 1
  488   511   510 1
  489   513   512 1
  490   514   513 1
  491   515   513 1
  492   516   513 1
  493   517   516 1
  494   519   518 1
  495   520   519 1
  496   521   519 1
  497   522   519 1
  498   523   522 1
  499   525   524 1
  500   526   525 1
  501   527   525 1
  502   528   525 1
  503   529   528 1
  504   531   530 1
  505   532   531 1
  506   533   531 1
  507   534   531 1
  508   535   534 1
  509   537   536 1
  510   538   537 1
  511   539   537 1
  512   540   537 1
  513   541   540 1
  514   543   542 1
  515   544   543 1
  516   545   543 1
  517   546   543 1
  518   547   546 1
  519   549   548 1
  520   550   549 1
  521   551   549 1
  522   552   549 1
  523   553   552 1
  524   555   554 1
  525   556   555 1
  526   557   555 1
  527   558   555 1
  528   559   558 1
  529   561   560 1
  530   562   561 1
  531   563   561 1
  532   564   561 1
  533   565   564 1
  534   567   566 1
  535   568   567 1
  536   569   567 1
  537   570   567 1
  538   571   570 1
  539   573   572 1
  540   574   573 1
  541   575   573 1
  542   576   573 1
  543   577   576 1
  544   579   578 1
  545   580   579 1
  546   581   579 1
  547   582   579 1
  548   583   582 1
  549   585   584 1
  550   586   585 1
  551   587   585 1
  552   588   585 1
  553   589   588 1
  554   591   590 1
  555   592   591 1
  556   593   591 1
  557   594   591 1
  558   595   594 1
  559   597   596 1
  560   598   597 1
  561   599   597 1
  562   600   597 1
  563   601   600 1
  564   603   602 1
  565   604   603 1
  566   605   603 1
  567   606   603 1
  568   607   606 1
  569   609   608 1
  570   610   609 1
  571   611   609 1
  572   612   609 1
  573   613   612 1
  574   615   614 1
  575   616   615 1
  576   617   615 1
  577   618   615 1
  578   619   618 1
  579   621   620 1
  580   622   621 1
  581   623   621 1
  582   624   621 1
  583   625   624 1
  584   627   626 1
  585   628   627 1
  586   629   627 1
  587   630   627 1
  588   631   630 1
  589   633   632 1
  590   634   633 1
  591   635   633 1
  592   636   633 1
  593   637   636 1
  594   639   638 1
  595   640   639 1
  596   641   639 1
  597   642   639 1
  598   643   642 1
  599   645   644 1
  600   646   645 1
  601   647   645 1
  602   648   645 1
  603   649   648 1
  604   651   650 1
  605   652   651 1
  606   653   651 1
  607   654   651 1
  608   655   654 1
  609   657   656 1
  610   658   657 1
  611   659   657 1
  612   660   657 1
  613   661   660 1
  614   663   662 1
  615   664   663 1
  616   665   663 1
  617   666   663 1
  618   667   666 1
  619   669   668 1
  620   670   669 1
  621   671   669 1
  622   672   669 1
  623   673   672 1
  624   675   674 1
  625   676   675 1
  626   677   675 1
  627   678   675 1
  628   679   678 1
  629   681   680 1
  630   682   681 1
  631   683   681 1
  632   684   681 1
  633   685   684 1
  634   687   686 1
  635   688   687 1
  636   689   687 1
  637   690   687 1
  638   691   690 1
  639   693   692 1
  640   694   693 1
  641   695   693 1
  642   696   693 1
  643   697   696 1
  644   699   698 1
  645   700   699 1
  646   701   699 1
  647   702   699 1
  648   703   702 1
  649   705   704 1
  650   706   705 1
  651   707   705 1
  652   708   705 1
  653   709   708 1
  654   711   710 1
  655   712   711 1
  656   713   711 1
  657   714   711 1
  658   715   714 1
  659   717   716 1
  660   718   717 1
  661   719   717 1
  662   720   717 1
  663   721   720 1
  664   723   722 1
  665   724   723 1
  666   725   723 1
  667   726   723 1
  668   727   726 1
  669   729   728 1
  670   730   729 1
  671   731   729 1
  672   732   729 1
  673   733   732 1
  674   735   734 1
  675   736   735 1
  676   737   735 1
  677   738   735 1
  678   739   738 1
  679   741   740 1
  680   742   741 1
  681   743   741 1
  682   744   741 1
  683   745   744 1
  684   747   746 1
  685   748   747 1
  686   749   747 1
  687   750   747 1
  688   751   750 1
  689   753   752 1
  690   754   753 1
  691   755   753 1
  692   756   753 1
  693   757   756 1
  694   759   758 1
  695   760   759 1
  696   761   759 1
  697   762   759 1
  698   763   762 1
  699   765   764 1
  700   766   765 1
  701   767   765 1
  702   768   765 1
  703   769   768 1
  704   771   770 1
  705   772   771 1
  706   773   771 1
  707   774   771 1
  708   775   774 1
  709   777   776 1
  710   778   777 1
  711   779   777 1
  712   780   777 1
  713   781   780 1
  714   783   782 1
  715   784   783 1
  716   785   783 1
  717   786   783 1
  718   787   786 1
  719   789   788 1
  720   790   789 1
  721   791   789 1
  722   792   789 1
  723   793   792 1
  724   795   794 1
  725   796   795 1
  726   797   795 1
  727   798   795 1
  728   799   798 1
  729   801   800 1
  730   802   801 1
  731   803   801 1
  732   804   801 1
  733   805   804 1
  734   807   806 1
  735   808   807 1
  736   809   807 1
  737   810   807 1
  738   811   810 1
  739   813   812 1
  740   814   813 1
  741   815   813 1
  742   816   813 1
  743   817   816 1
  744   819   818 1
  745   820   819 1
  746   821   819 1
  747   822   819 1
  748   823   822 1
  749   825   824 1
  750   826   825 1
  751   827   825 1
  752   828   825 1
  753   829   828 1
  754   831   830 1
  755   832   831 1
  756   833   831 1
  757   834   831 1
  758   835   834 1
  759   837   836 1
  760   838   837 1
  761   839   837 1
  762   840   837 1
  763   841   840 1
  764   843   842 1
  765   844   843 1
  766   845   843 1
  767   846   843 1
  768   847   846 1
  769   849   848 1
  770   850   849 1
  771   851   849 1
  772   852   849 1
  773   853   852 1
  774   855   854 1
  775   856   855 1
  776   857   855 1
  777   858   855 1
  778   859   858 1
  779   861   860 1
  780   862   861 1
  781   863   861 1
  782   864   861 1
  783   865   864 1
  784   867   866 1
  785   868   867 1
  786   869   867 1
  787   870   867 1
  788   871   870 1
  789   873   872 1
  790   874   873 1
  791   875   873 1
  792   876   873 1
  793   877   876 1
  794   879   878 1
  795   880   879 1
  796   881   879 1
  797   882   879 1
  798   883   882 1
  799   885   884 1
  800   886   885 1
  801   887   885 1
  802   888   885 1
  803   889   888 1
  804   891   890 1
  805   892   891 1
  806   893   891 1
  807   894   891 1
  808   895   894 1
  809   897   896 1
  810   898   897 1
  811   899   897 1
  812   900   897 1
  813   901   900 1
  814   903   902 1
  815   904   903 1
  816   905   903 1
  817   906   903 1
  818   907   906 1
  819   909   908 1
  820   910   909 1
  821   911   909 1
  822   912   909 1
  823   913   912 1
  824   915   914 1
  825   916   915 1
  826   917   915 1
  827   918   915 1
  828   919   918 1
  829   921   920 1
  830   922   921 1
  831   923   921 1
  832   924   921 1
  833   925   924 1
  834   927   926 1
  835   928   927 1
  836   929   927 1
  837   930   927 1
  838   931   930 1
  839   933   932 1
  840   934   933 1
  841   935   933 1
  842   936   933 1
  843   937   936 1
  844   939   938 1
  845   940   939 1
  846   941   939 1
  847   942   939 1
  848   943   942 1
  849   945   944 1
  850   946   945 1
  851   947   945 1
  852   948   945 1
  853   949   948 1
  854   951   950 1
  855   952   951 1
  856   953   951 1
  857   954   951 1
  858   955   954 1
  859   957   956 1
  860   958   957 1
  861   959   957 1
  862   960   957 1
  863   961   960 1
  864   963   962 1
  865   964   963 1
  866   965   963 1
  867   966   963 1
  868   967   966 1
  869   969   968 1
  870   970   969 1
  871   971   969 1
  872   972   969 1
  873   973   972 1
  874   975   974 1
  875   976   975 1
  876   977   975 1
  877   978   975 1
  878   979   978 1
  879   981   980 1
  880   982   981 1
  881   983   981 1
  882   984   981 1
  883   985   984 1
  884   987   986 1
  885   988   987 1
  886   989   987 1
  887   990   987 1
  888   991   990 1
  889   993   992 1
  890   994   993 1
  891   995   993 1
  892   996   993 1
  893   997   996 1
  894   999   998 1
  895  1000   999 1
  896  1001   999 1
  897  1002   999 1
  898  1003  1002 1
  899  1005  1004 1
  900  1006  1005 1
  901  1007  1005 1
  902  1008  1005 1
  903  1009  1008 1
  904  1011  1010 1
  905  1012  1011 1
  906  1013  1011 1
  907  1014  1011 1
  908  1015  1014 1
  909  1017  1016 1
  910  1018  1017 1
  911  1019  1017 1
  912  1020  1017 1
  913  1021  1020 1
  914  1023  1022 1
  915  1024  1023 1
  916  1025  1023 1
  917  1026  1023 1
  918  1027  1026 1
  919  1029  1028 1
  920  1030  1029 1
  921  1031  1029 1
  922  1032  1029 1
  923  1033  1032 1
  924  1035  1034 1
  925  1036  1035 1
  926  1037  1035 1
  927  1038  1035 1
  928  1039  1038 1
  929  1041  1040 1
  930  1042  1041 1
  931  1043  1041 1
  932  1044  1041 1
  933  1045  1044 1
  934  1047  1046 1
  935  1048  1047 1
  936  1049  1047 1
  937  1050  1047 1
  938  1051  1050 1
  939  1053  1052 1
  940  1054  1053 1
  941  1055  1053 1
  942  1056  1053 1
  943  1057  1056 1
  944  1059  1058 1
  945  1060  1059 1
  946  1061  1059 1
  947  1062  1059 1
  948  1063  1062 1
  949  1065  1064 1
  950  1066  1065 1
  951  1067  1065 1
  952  1068  1065 1
  953  1069  1068 1
  954  1071  1070 1
  955  1072  1071 1
  956  1073  1071 1
  957  1074  1071 1
  958  1075  1074 1
  959  1077  1076 1
  960  1078  1077 1
  961  1079  1077 1
  962  1080  1077 1
  963  1081  1080 1
  964  1083  1082 1
  965  1084  1083 1
  966  1085  1083 1
  967  1086  1083 1
  968  1087  1086 1
  969  1089  1088 1
  970  1090  1089 1
  971  1091  1089 1
  972  1092  1089 1
  973  1093  1092 1
  974  1095  1094 1
  975  1096  1095 1
  976  1097  1095 1
  977  1098  1095 1
  978  1099  1098 1
  979  1101  1100 1
  980  1102  1101 1
  981  1103  1101 1
  982  1104  1101 1
  983  1105  1104 1
  984  1107  1106 1
  985  1108  1107 1
  986  1109  1107 1
  987  1110  1107 1
  988  1111  1110 1
  989  1113  1112 1
  990  1114  1113 1
  991  1115  1113 1
  992  1116  1113 1
  993  1117  1116 1
  994  1119  1118 1
  995  1120  1119 1
  996  1121  1119 1
  997  1122  1119 1
  998  1123  1122 1
  999  1125  1124 1
 1000  1126  1125 1
 1001  1127  1125 1
 1002  1128  1125 1
 1003  1129  1128 1
 1004  1131  1130 1
 1005  1132  1131 1
 1006  1133  1131 1
 1007  1134  1131 1
 1008  1135  1134 1
 1009  1137  1136 1
 1010  1138  1137 1
 1011  1139  1137 1
 1012  1140  1137 1
 1013  1141  1140 1
 1014  1143  1142 1
 1015  1144  1143 1
 1016  1145  1143 1
 1017  1146  1143 1
 1018  1147  1146 1
 1019  1149  1148 1
 1020  1150  1149 1
 1021  1151  1149 1
 1022  1152  1149 1
 1023  1153  1152 1
 1024  1155  1154 1
 1025  1156  1155 1
 1026  1157  1155 1
 1027  1158  1155 1
 1028  1159  1158 1
 1029  1161  1160 1
 1030  1162  1161 1
 1031  1163  1161 1
 1032  1164  1161 1
 1033  1165  1164 1
 1034  1167  1166 1
 1035  1168  1167 1
 1036  1169  1167 1
 1037  1170  1167 1
 1038  1171  1170 1
 1039  1173  1172 1
 1040  1174  1173 1
 1041  1175  1173 1
 1042  1176  1173 1
 1043  1177  1176 1
 1044  1179  1178 1
 1045  1180  1179 1
 1046  1181  1179 1
 1047  1182  1179 1
 1048  1183  1182 1
 1049  1185  1184 1
 1050  1186  1185 1
 1051  1187  1185 1
 1052  1188  1185 1
 1053  1189  1188 1
 1054  1191  1190 1
 1055  1192  1191 1
 1056  1193  1191 1
 1057  1194  1191 1
 1058  1195  1194 1
 1059  1197  1196 1
 1060  1198  1197 1
 1061  1199  1197 1
 1062  1200  1197 1
 1063  1201  1200 1
 1064  1203  1202 1
 1065  1204  1203 1
 1066  1205  1203 1
 1067  1206  1203 1
 1068  1207  1206 1
 1069  1209  1208 1
 1070  1210  1209 1
 1071  1211  1209 1
 1072  1212  1209 1
 1073  1213  1212 1
 1074  1215  1214 1
 1075  1216  1215 1
 1076  1217  1215 1
 1077  1218  1215 1
 1078  1219  1218 1
 1079  1221  1220 1
 1080  1222  1221 1
 1081  1223  1221 1
 1082  1224  1221 1
 1083  1225  1224 1
 1084  1227  1226 1
 1085  1228  1227 1
 1086  1229  1227 1
 1087  1230  1227 1
 1088  1231  1230 1
 1089  1233  1232 1
 1090  1234  1233 1
 1091  1235  1233 1
 1092  1236  1233 1
 1093  1237  1236 1
 1094  1239  1238 1
 1095  1240  1239 1
 1096  1241  1239 1
 1097  1242  1239 1
 1098  1243  1242 1
 1099  1245  1244 1
 1100  1246  1245 1
 1101  1247  1245 1
 1102  1248  1245 1
 1103  1249  1248 1
 1104  1251  1250 1
 1105  1252  1251 1
 1106  1253  1251 1
 1107  1254  1251 1
 1108  1255  1254 1
 1109  1257  1256 1
 1110  1258  1257 1
 1111  1259  1257 1
 1112  1260  1257 1
 1113  1261  1260 1
 1114  1263  1262 1
 1115  1264  1263 1
 1116  1265  1263 1
 1117  1266  1263 1
 1118  1267  1266 1
 1119  1269  1268 1
 1120  1270  1269 1
 1121  1271  1269 1
 1122  1272  1269 1
 1123  1273  1272 1
 1124  1275  1274 1
 1125  1276  1275 1
 1126  1277  1275 1
 1127  1278  1275 1
 1128  1279  1278 1
 1129  1281  1280 1
 1130  1282  1281 1
 1131  1283  1281 1
 1132  1284  1281 1
 1133  1285  1284 1
 1134  1287  1286 1
 1135  1288  1287 1
 1136  1289  1287 1
 1137  1290  1287 1
 1138  1291  1290 1
 1139  1293  1292 1
 1140  1294  1293 1
 1141  1295  1293 1
 1142  1296  1293 1
 1143  1297  1296 1
 1144  1299  1298 1
 1145  1300  1299 1
 1146  1301  1299 1
 1147  1302  1299 1
 1148  1303  1302 1
 1149  1305  1304 1
 1150  1306  1305 1
 1151  1307  1305 1
 1152  1308  1305 1
 1153  1309  1308 1
 1154  1311  1310 1
 1155  1312  1311 1
 1156  1313  1311 1
 1157  1314  1311 1
 1158  1315  1314 1
 1159  1317  1316 1
 1160  1318  1317 1
 1161  1319  1317 1
 1162  1320  1317 1
 1163  1321  1320 1
 1164  1323  1322 1
 1165  1324  1323 1
 1166  1325  1323 1
 1167  1326  1323 1
 1168  1327  1326 1
 1169  1329  1328 1
 1170  1330  1329 1
 1171  1331  1329 1
 1172  1332  1329 1
 1173  1333  1332 1
 1174  1335  1334 1
 1175  1336  1335 1
 1176  1337  1335 1
 1177  1338  1335 1
 1178  1339  1338 1
 1179  1341  1340 1
 1180  1342  1341 1
 1181  1343  1341 1
 1182  1344  1341 1
 1183  1345  1344 1
 1184  1347  1346 1
 1185  1348  1347 1
 1186  1349  1347 1
 1187  1350  1347 1
 1188  1351  1350 1
 1189  1353  1352 1
 1190  1354  1353 1
 1191  1355  1353 1
 1192  1356  1353 1
 1193  1357  1356 1
 1194  1359  1358 1
 1195  1360  1359 1
 1196  1361  1359 1
 1197  1362  1359 1
 1198  1363  1362 1
 1199  1365  1364 1
 1200  1366  1365 1
 1201  1367  1365 1
 1202  1368  1365 1
 1203  1369  1368 1
 1204  1371  1370 1
 1205  1372  1371 1
 1206  1373  1371 1
 1207  1374  1371 1
 1208  1375  1374 1
 1209  1377  1376 1
 1210  1378  1377 1
 1211  1379  1377 1
 1212  1380  1377 1
 1213  1381  1380 1
 1214  1383  1382 1
 1215  1384  1383 1
 1216  1385  1383 1
 1217  1386  1383 1
 1218  1387  1386 1
 1219  1389  1388 1
 1220  1390  1389 1
 1221  1391  1389 1
 1222  1392  1389 1
 1223  1393  1392 1
 1224  1395  1394 1
 1225  1396  1395 1
 1226  1397  1395 1
 1227  1398  1395 1
 1228  1399  1398 1
 1229  1401  1400 1
 1230  1402  1401 1
 1231  1403  1401 1
 1232  1404  1401 1
 1233  1405  1404 1
 1234  1407  1406 1
 1235  1408  1407 1
 1236  1409  1407 1
 1237  1410  1407 1
 1238  1411  1410 1
 1239  1413  1412 1
 1240  1414  1413 1
 1241  1415  1413 1
 1242  1416  1413 1
 1243  1417  1416 1
 1244  1419  1418 1
 1245  1420  1419 1
 1246  1421  1419 1
 1247  1422  1419 1
 1248  1423  1422 1
 1249  1425  1424 1
 1250  1426  1425 1
 1251  1427  1425 1
 1252  1428  1425 1
 1253  1429  1428 1
 1254  1431  1430 1
 1255  1432  1431 1
 1256  1433  1431 1
 1257  1434  1431 1
 1258  1435  1434 1
 1259  1437  1436 1
 1260  1438  1437 1
 1261  1439  1437 1
 1262  1440  1437 1
 1263  1441  1440 1
 1264  1443  1442 1
 1265  1444  1443 1
 1266  1445  1443 1
 1267  1446  1443 1
 1268  1447  1446 1
 1269  1449  1448 1
 1270  1450  1449 1
 1271  1451  1449 1
 1272  1452  1449 1
 1273  1453  1452 1
 1274  1455  1454 1
 1275  1456  1455 1
 1276  1457  1455 1
 1277  1458  1455 1
 1278  1459  1458 1
 1279  1461  1460 1
 1280  1462  1461 1
 1281  1463  1461 1
 1282  1464  1461 1
 1283  1465  1464 1
 1284  1467  1466 1
 1285  1468  1467 1
 1286  1469  1467 1
 1287  1470  1467 1
 1288  1471  1470 1
 1289  1473  1472 1
 1290  1474  1473 1
 1291  1475  1473 1
 1292  1476  1473 1
 1293  1477  1476 1
 1294  1479  1478 1
 1295  1480  1479 1
 1296  1481  1479 1
 1297  1482  1479 1
 1298  1483  1482 1
 1299  1485  1484 1
 1300  1486  1485 1
 1301  1487  1485 1
 1302  1488  1485 1
 1303  1489  1488 1
 1304  1491  1490 1
 1305  1492  1491 1
 1306  1493  1491 1
 1307  1494  1491 1
 1308  1495  1494 1
 1309  1497  1496 1
 1310  1498  1497 1
 1311  1499  1497 1
 1312  1500  1497 1
 1313  1501  1500 1
 1314  1503  1502 1
 1315  1504  1503 1
 1316  1505  1503 1
 1317  1506  1503 1
 1318  1507  1506 1
 1319  1509  1508 1
 1320  1510  1509 1
 1321  1511  1509 1
 1322  1512  1509 1
 1323  1513  1512 1
 1324  1515  1514 1
 1325  1516  1515 1
 1326  1517  1515 1
 1327  1518  1515 1
 1328  1519  1518 1
 1329  1521  1520 1
 1330  1522  1521 1
 1331  1523  1521 1
 1332  1524  1521 1
 1333  1525  1524 1
 1334  1527  1526 1
 1335  1528  1527 1
 1336  1529  1527 1
 1337  1530  1527 1
 1338  1531  1530 1
 1339  1533  1532 1
 1340  1534  1533 1
 1341  1535  1533 1
 1342  1536  1533 1
 1343  1537  1536 1
 1344  1539  1538 1
 1345  1540  1539 1
 1346  1541  1539 1
 1347  1542  1539 1
 1348  1543  1542 1
 1349  1545  1544 1
 1350  1546  1545 1
 1351  1547  1545 1
 1352  1548  1545 1
 1353  1549  1548 1
 1354  1551  1550 1
 1355  1552  1551 1
 1356  1553  1551 1
 1357  1554  1551 1
 1358  1555  1554 1
 1359  1557  1556 1
 1360  1558  1557 1
 1361  1559  1557 1
 1362  1560  1557 1
 1363  1561  1560 1
 1364  1563  1562 1
 1365  1564  1563 1
 1366  1565  1563 1
 1367  1566  1563 1
 1368  1567  1566 1
 1369  1569  1568 1
 1370  1570  1569 1
 1371  1571  1569 1
 1372  1572  1569 1
 1373  1573  1572 1
 1374  1575  1574 1
 1375  1576  1575 1
 1376  1577  1575 1
 1377  1578  1575 1
 1378  1579  1578 1
 1379  1581  1580 1
 1380  1582  1581 1
 1381  1583  1581 1
 1382  1584  1581 1
 1383  1585  1584 1
 1384  1587  1586 1
 1385  1588  1587 1
 1386  1589  1587 1
 1387  1590  1587 1
 1388  1591  1590 1
 1389  1593  1592 1
 1390  1594  1593 1
 1391  1595  1593 1
 1392  1596  1593 1
 1393  1597  1596 1
 1394  1599  1598 1
 1395  1600  1599 1
 1396  1601  1599 1
 1397  1602  1599 1
 1398  1603  1602 1
 1399  1605  1604 1
 1400  1606  1605 1
 1401  1607  1605 1
 1402  1608  1605 1
 1403  1609  1608 1
 1404  1611  1610 1
 1405  1612  1611 1
 1406  1613  1611 1
 1407  1614  1611 1
 1408  1615  1614 1
 1409  1617  1616 1
 1410  1618  1617 1
 1411  1619  1617 1
 1412  1620  1617 1
 1413  1621  1620 1
 1414  1623  1622 1
 1415  1624  1623 1
 1416  1625  1623 1
 1417  1626  1623 1
 1418  1627  1626 1
 1419  1629  1628 1
 1420  1630  1629 1
 1421  1631  1629 1
 1422  1632  1629 1
 1423  1633  1632 1
 1424  1635  1634 1
 1425  1636  1635 1
 1426  1637  1635 1
 1427  1638  1635 1
 1428  1639  1638 1
 1429  1641  1640 1
 1430  1642  1641 1
 1431  1643  1641 1
 1432  1644  1641 1
 1433  1645  1644 1
 1434  1647  1646 1
 1435  1648  1647 1
 1436  1649  1647 1
 1437  1650  1647 1
 1438  1651  1650 1
 1439  1653  1652 1
 1440  1654  1653 1
 1441  1655  1653 1
 1442  1656  1653 1
 1443  1657  1656 1
 1444  1659  1658 1
 1445  1660  1659 1
 1446  1661  1659 1
 1447  1662  1659 1
 1448  1663  1662 1
 1449  1665  1664 1
 1450  1666  1665 1
 1451  1667  1665 1
 1452  1668  1665 1
 1453  1669  1668 1
 1454  1671  1670 1
 1455  1672  1671 1
 1456  1673  1671 1
 1457  1674  1671 1
 1458  1675  1674 1
 1459  1677  1676 1
 1460  1678  1677 1
 1461  1679  1677 1
 1462  1680  1677 1
 1463  1681  1680 1
 1464  1683  1682 1
 1465  1684  1683 1
 1466  1685  1683 1
 1467  1686  1683 1
 1468  1687  1686 1
 1469  1689  1688 1
 1470  1690  1689 1
 1471  1691  1689 1
 1472  1692  1689 1
 1473  1693  1692 1
 1474  1695  1694 1
 1475  1696  1695 1
 1476  1697  1695 1
 1477  1698  1695 1
 1478  1699  1698 1
 1479  1701  1700 1
 1480  1702  1701 1
 1481  1703  1701 1
 1482  1704  1701 1
 1483  1705  1704 1
 1484  1707  1706 1
 1485  1708  1707 1
 1486  1709  1707 1
 1487  1710  1707 1
 1488  1711  1710 1
 1489  1713  1712 1
 1490  1714  1713 1
 1491  1715  1713 1
 1492  1716  1713 1
 1493  1717  1716 1
 1494  1719  1718 1
 1495  1720  1719 1
 1496  1721  1719 1
 1497  1722  1719 1
 1498  1723  1722 1
 1499  1725  1724 1
 1500  1726  1725 1
 1501  1727  1725 1
 1502  1728  1725 1
 1503  1729  1728 1
 1504  1731  1730 1
 1505  1732  1731 1
 1506  1733  1731 1
 1507  1734  1731 1
 1508  1735  1734 1
 1509  1737  1736 1
 1510  1738  1737 1
 1511  1739  1737 1
 1512  1740  1737 1
 1513  1741  1740 1
 1514  1743  1742 1
 1515  1744  1743 1
 1516  1745  1743 1
 1517  1746  1743 1
 1518  1747  1746 1
 1519  1749  1748 1
 1520  1750  1749 1
 1521  1751  1749 1
 1522  1752  1749 1
 1523  1753  1752 1
 1524  1755  1754 1
 1525  1756  1755 1
 1526  1757  1755 1
 1527  1758  1755 1
 1528  1759  1758 1
 1529  1761  1760 1
 1530  1762  1761 1
 1531  1763  1761 1
 1532  1764  1761 1
 1533  1765  1764 1
 1534  1767  1766 1
 1535  1768  1767 1
 1536  1769  1767 1
 1537  1770  1767 1
 1538  1771  1770 1
 1539  1773  1772 1
 1540  1774  1773 1
 1541  1775  1773 1
 1542  1776  1773 1
 1543  1777  1776 1
 1544  1779  1778 1
 1545  1780  1779 1
 1546  1781  1779 1
 1547  1782  1779 1
 1548  1783  1782 1
 1549  1785  1784 1
 1550  1786  1785 1
 1551  1787  1785 1
 1552  1788  1785 1
 1553  1789  1788 1
 1554  1791  1790 1
 1555  1792  1791 1
 1556  1793  1791 1
 1557  1794  1791 1
 1558  1795  1794 1
 1559  1797  1796 1
 1560  1798  1797 1
 1561  1799  1797 1
 1562  1800  1797 1
 1563  1801  1800 1
 1564  1803  1802 1
 1565  1804  1803 1
 1566  1805  1803 1
 1567  1806  1803 1
 1568  1807  1806 1
 1569  1809  1808 1
 1570  1810  1809 1
 1571  1811  1809 1
 1572  1812  1809 1
 1573  1813  1812 1
 1574  1815  1814 1
 1575  1816  1815 1
 1576  1817  1815 1
 1577  1818  1815 1
 1578  1819  1818 1
 1579  1821  1820 1
 1580  1822  1821 1
 1581  1823  1821 1
 1582  1824  1821 1
 1583  1825  1824 1
 1584  1827  1826 1
 1585  1828  1827 1
 1586  1829  1827 1
 1587  1830  1827 1
 1588  1831  1830 1
 1589  1833  1832 1
 1590  1834  1833 1
 1591  1835  1833 1
 1592  1836  1833 1
 1593  1837  1836 1
 1594  1839  1838 1
 1595  1840  1839 1
 1596  1841  1839 1
 1597  1842  1839 1
 1598  1843  1842 1
 1599  1845  1844 1
 1600  1846  1845 1
 1601  1847  1845 1
 1602  1848  1845 1
 1603  1849  1848 1
 1604  1851  1850 1
 1605  1852  1851 1
 1606  1853  1851 1
 1607  1854  1851 1
 1608  1855  1854 1
 1609  1857  1856 1
 1610  1858  1857 1
 1611  1859  1857 1
 1612  1860  1857 1
 1613  1861  1860 1
 1614  1863  1862 1
 1615  1864  1863 1
 1616  1865  1863 1
 1617  1866  1863 1
 1618  1867  1866 1
 1619  1869  1868 1
 1620  1870  1869 1
 1621  1871  1869 1
 1622  1872  1869 1
 1623  1873  1872 1
 1624  1875  1874 1
 1625  1876  1875 1
 1626  1877  1875 1
 1627  1878  1875 1
 1628  1879  1878 1
 1629  1881  1880 1
 1630  1882  1881 1
 1631  1883  1881 1
 1632  1884  1881 1
 1633  1885  1884 1
 1634  1887  1886 1
 1635  1888  1887 1
 1636  1889  1887 1
 1637  1890  1887 1
 1638  1891  1890 1
 1639  1893  1892 1
 1640  1894  1893 1
 1641  1895  1893 1
 1642  1896  1893 1
 1643  1897  1896 1
 1644  1899  1898 1
 1645  1900  1899 1
 1646  1901  1899 1
 1647  1902  1899 1
 1648  1903  1902 1
 1649  1905  1904 1
 1650  1906  1905 1
 1651  1907  1905 1
 1652  1908  1905 1
 1653  1909  1908 1
 1654  1911  1910 1
 1655  1912  1911 1
 1656  1913  1911 1
 1657  1914  1911 1
 1658  1915  1914 1
 1659  1917  1916 1
 1660  1918  1917 1
 1661  1919  1917 1
 1662  1920  1917 1
 1663  1921  1920 1
 1664  1923  1922 1
 1665  1924  1923 1
 1666  1925  1923 1
 1667  1926  1923 1
 1668  1927  1926 1
 1669  1929  1928 1
 1670  1930  1929 1
 1671  1931  1929 1
 1672  1932  1929 1
 1673  1933  1932 1
 1674  1935  1934 1
 1675  1936  1935 1
 1676  1937  1935 1
 1677  1938  1935 1
 1678  1939  1938 1
 1679  1941  1940 1
 1680  1942  1941 1
 1681  1943  1941 1
 1682  1944  1941 1
 1683  1945  1944 1
 1684  1947  1946 1
 1685  1948  1947 1
 1686  1949  1947 1
 1687  1950  1947 1
 1688  1951  1950 1
 1689  1953  1952 1
 1690  1954  1953 1
 1691  1955  1953 1
 1692  1956  1953 1
 1693  1957  1956 1
 1694  1959  1958 1
 1695  1960  1959 1
 1696  1961  1959 1
 1697  1962  1959 1
 1698  1963  1962 1
 1699  1965  1964 1
 1700  1966  1965 1
 1701  1967  1965 1
 1702  1968  1965 1
 1703  1969  1968 1
 1704  1971  1970 1
 1705  1972  1971 1
 1706  1973  1971 1
 1707  1974  1971 1
 1708  1975  1974 1
 1709  1977  1976 1
 1710  1978  1977 1
 1711  1979  1977 1
 1712  1980  1977 1
 1713  1981  1980 1
 1714  1983  1982 1
 1715  1984  1983 1
 1716  1985  1983 1
 1717  1986  1983 1
 1718  1987  1986 1
 1719  1989  1988 1
 1720  1990  1989 1
 1721  1991  1989 1
 1722  1992  1989 1
 1723  1993  1992 1
 1724  1995  1994 1
 1725  1996  1995 1
 1726  1997  1995 1
 1727  1998  1995 1
 1728  1999  1998 1
 1729  2001  2000 1
 1730  2002  2001 1
 1731  2003  2001 1
 1732  2004  2001 1
 1733  2005  2004 1
 1734  2007  2006 1
 1735  2008  2007 1
 1736  2009  2007 1
 1737  2010  2007 1
 1738  2011  2010 1
 1739  2013  2012 1
 1740  2014  2013 1
 1741  2015  2013 1
 1742  2016  2013 1
 1743  2017  2016 1
 1744  2019  2018 1
 1745  2020  2019 1
 1746  2021  2019 1
 1747  2022  2019 1
 1748  2023  2022 1
 1749  2025  2024 1
 1750  2026  2025 1
 1751  2027  2025 1
 1752  2028  2025 1
 1753  2029  2028 1
 1754  2031  2030 1
 1755  2032  2031 1
 1756  2033  2031 1
 1757  2034  2031 1
 1758  2035  2034 1
 1759  2037  2036 1
 1760  2038  2037 1
 1761  2039  2037 1
 1762  2040  2037 1
 1763  2041  2040 1
 1764  2043  2042 1
 1765  2044  2043 1
 1766  2045  2043 1
 1767  2046  2043 1
 1768  2047  2046 1
 1769  2049  2048 1
 1770  2050  2049 1
 1771  2051  2049 1
 1772  2052  2049 1
 1773  2053  2052 1
 1774  2055  2054 1
 1775  2056  2055 1
 1776  2057  2055 1
 1777  2058  2055 1
 1778  2059  2058 1
 1779  2061  2060 1
 1780  2062  2061 1
 1781  2063  2061 1
 1782  2064  2061 1
 1783  2065  2064 1
 1784  2067  2066 1
 1785  2068  2067 1
 1786  2069  2067 1
 1787  2070  2067 1
 1788  2071  2070 1
 1789  2073  2072 1
 1790  2074  2073 1
 1791  2075  2073 1
 1792  2076  2073 1
 1793  2077  2076 1
 1794  2079  2078 1
 1795  2080  2079 1
 1796  2081  2079 1
 1797  2082  2079 1
 1798  2083  2082 1
 1799  2085  2084 1
 1800  2086  2085 1
 1801  2087  2085 1
 1802  2088  2085 1
 1803  2089  2088 1
 1804  2091  2090 1
 1805  2092  2091 1
 1806  2093  2091 1
 1807  2094  2091 1
 1808  2095  2094 1
 1809  2097  2096 1
 1810  2098  2097 1
 1811  2099  2097 1
 1812  2100  2097 1
 1813  2101  2100 1
 1814  2103  2102 1
 1815  2104  2103 1
 1816  2105  2103 1
 1817  2106  2103 1
 1818  2107  2106 1
 1819  2109  2108 1
 1820  2110  2109 1
 1821  2111  2109 1
 1822  2112  2109 1
 1823  2113  2112 1
 1824  2115  2114 1
 1825  2116  2115 1
 1826  2117  2115 1
 1827  2118  2115 1
 1828  2119  2118 1
 1829  2121  2120 1
 1830  2122  2121 1
 1831  2123  2121 1
 1832  2124  2121 1
 1833  2125  2124 1
 1834  2127  2126 1
 1835  2128  2127 1
 1836  2129  2127 1
 1837  2130  2127 1
 1838  2131  2130 1
 1839  2133  2132 1
 1840  2134  2133 1
 1841  2135  2133 1
 1842  2136  2133 1
 1843  2137  2136 1
 1844  2139  2138 1
 1845  2140  2139 1
 1846  2141  2139 1
 1847  2142  2139 1
 1848  2143  2142 1
 1849  2145  2144 1
 1850  2146  2145 1
 1851  2147  2145 1
 1852  2148  2145 1
 1853  2149  2148 1
 1854  2151  2150 1
 1855  2152  2151 1
 1856  2153  2151 1
 1857  2154  2151 1
 1858  2155  2154 1
 1859  2157  2156 1
 1860  2158  2157 1
 1861  2159  2157 1
 1862  2160  2157 1
 1863  2161  2160 1
 1864  2163  2162 1
 1865  2164  2163 1
 1866  2165  2163 1
 1867  2166  2163 1
 1868  2167  2166 1
 1869  2169  2168 1
 1870  2170  2169 1
 1871  2171  2169 1
 1872  2172  2169 1
 1873  2173  2172 1
 1874  2175  2174 1
 1875  2176  2175 1
 1876  2177  2175 1
 1877  2178  2175 1
 1878  2179  2178 1
 1879  2181  2180 1
 1880  2182  2181 1
 1881  2183  2181 1
 1882  2184  2181 1
 1883  2185  2184 1
 1884  2187  2186 1
 1885  2188  2187 1
 1886  2189  2187 1
 1887  2190  2187 1
 1888  2191  2190 1
 1889  2193  2192 1
 1890  2194  2193 1
 1891  2195  2193 1
 1892  2196  2193 1
 1893  2197  2196 1
 1894  2199  2198 1
 1895  2200  2199 1
 1896  2201  2199 1
 1897  2202  2199 1
 1898  2203  2202 1
 1899  2205  2204 1
 1900  2206  2205 1
 1901  2207  2205 1
 1902  2208  2205 1
 1903  2209  2208 1
 1904  2211  2210 1
 1905  2212  2211 1
 1906  2213  2211 1
 1907  2214  2211 1
 1908  2215  2214 1
 1909  2217  2216 1
 1910  2218  2217 1
 1911  2219  2217 1
 1912  2220  2217 1
 1913  2221  2220 1
 1914  2223  2222 1
 1915  2224  2223 1
 1916  2225  2223 1
 1917  2226  2223 1
 1918  2227  2226 1
 1919  2229  2228 1
 1920  2230  2229 1
 1921  2231  2229 1
 1922  2232  2229 1
 1923  2233  2232 1
 1924  2235  2234 1
 1925  2236  2235 1
 1926  2237  2235 1
 1927  2238  2235 1
 1928  2239  2238 1
 1929  2241  2240 1
 1930  2242  2241 1
 1931  2243  2241 1
 1932  2244  2241 1
 1933  2245  2244 1
 1934  2247  2246 1
 1935  2248  2247 1
 1936  2249  2247 1
 1937  2250  2247 1
 1938  2251  2250 1
 1939  2253  2252 1
 1940  2254  2253 1
 1941  2255  2253 1
 1942  2256  2253 1
 1943  2257  2256 1
 1944  2259  2258 1
 1945  2260  2259 1
 1946  2261  2259 1
 1947  2262  2259 1
 1948  2263  2262 1
 1949  2265  2264 1
 1950  2266  2265 1
 1951  2267  2265 1
 1952  2268  2265 1
 1953  2269  2268 1
 1954  2271  2270 1
 1955  2272  2271 1
 1956  2273  2271 1
 1957  2274  2271 1
 1958  2275  2274 1
 1959  2277  2276 1
 1960  2278  2277 1
 1961  2279  2277 1
 1962  2280  2277 1
 1963  2281  2280 1
 1964  2283  2282 1
 1965  2284  2283 1
 1966  2285  2283 1
 1967  2286  2283 1
 1968  2287  2286 1
 1969  2289  2288 1
 1970  2290  2289 1
 1971  2291  2289 1
 1972  2292  2289 1
 1973  2293  2292 1
 1974  2295  2294 1
 1975  2296  2295 1
 1976  2297  2295 1
 1977  2298  2295 1
 1978  2299  2298 1
 1979  2301  2300 1
 1980  2302  2301 1
 1981  2303  2301 1
 1982  2304  2301 1
 1983  2305  2304 1
 1984  2307  2306 1
 1985  2308  2307 1
 1986  2309  2307 1
 1987  2310  2307 1
 1988  2311  2310 1
 1989  2313  2312 1
 1990  2314  2313 1
 1991  2315  2313 1
 1992  2316  2313 1
 1993  2317  2316 1
 1994  2319  2318 1
 1995  2320  2319 1
 1996  2321  2319 1
 1997  2322  2319 1
 1998  2323  2322 1
 1999  2325  2324 1
 2000  2326  2325 1
 2001  2327  2325 1
 2002  2328  2325 1
 2003  2329  2328 1
 2004  2331  2330 1
 2005  2332  2331 1
 2006  2333  2331 1
 2007  2334  2331 1
 2008  2335  2334 1
 2009  2337  2336 1
 2010  2338  2337 1
 2011  2339  2337 1
 2012  2340  2337 1
 2013  2341  2340 1
 2014  2343  2342 1
 2015  2344  2343 1
 2016  2345  2343 1
 2017  2346  2343 1
 2018  2347  2346 1
 2019  2349  2348 1
 2020  2350  2349 1
 2021  2351  2349 1
 2022  2352  2349 1
 2023  2353  2352 1
 2024  2355  2354 1
 2025  2356  2355 1
 2026  2357  2355 1
 2027  2358  2355 1
 2028  2359  2358 1
 2029  2361  2360 1
 2030  2362  2361 1
 2031  2363  2361 1
 2032  2364  2361 1
 2033  2365  2364 1
 2034  2367  2366 1
 2035  2368  2367 1
 2036  2369  2367 1
 2037  2370  2367 1
 2038  2371  2370 1
 2039  2373  2372 1
 2040  2374  2373 1
 2041  2375  2373 1
 2042  2376  2373 1
 2043  2377  2376 1
 2044  2379  2378 1
 2045  2380  2379 1
 2046  2381  2379 1
 2047  2382  2379 1
 2048  2383  2382 1
 2049  2385  2384 1
 2050  2386  2385 1
 2051  2387  2385 1
 2052  2388  2385 1
 2053  2389  2388 1
 2054  2391  2390 1
 2055  2392  2391 1
 2056  2393  2391 1
 2057  2394  2391 1
 2058  2395  2394 1
 2059  2397  2396 1
 2060  2398  2397 1
 2061  2399  2397 1
 2062  2400  2397 1
 2063  2401  2400 1
 2064  2403  2402 1
 2065  2404  2403 1
 2066  2405  2403 1
 2067  2406  2403 1
 2068  2407  2406 1
 2069  2409  2408 1
 2070  2410  2409 1
 2071  2411  2409 1
 2072  2412  2409 1
 2073  2413  2412 1
 2074  2415  2414 1
 2075  2416  2415 1
 2076  2417  2415 1
 2077  2418  2415 1
 2078  2419  2418 1
 2079  2421  2420 1
 2080  2422  2421 1
 2081  2423  2421 1
 2082  2424  2421 1
 2083  2425  2424 1
 2084  2427  2426 1
 2085  2428  2427 1
 2086  2429  2427 1
 2087  2430  2427 1
 2088  2431  2430 1
 2089  2433  2432 1
 2090  2434  2433 1
 2091  2435  2433 1
 2092  2436  2433 1
 2093  2437  2436 1
 2094  2439  2438 1
 2095  2440  2439 1
 2096  2441  2439 1
 2097  2442  2439 1
 2098  2443  2442 1
 2099  2445  2444 1
 2100  2446  2445 1
 2101  2447  2445 1
 2102  2448  2445 1
 2103  2449  2448 1
 2104  2451  2450 1
 2105  2452  2451 1
 2106  2453  2451 1
 2107  2454  2451 1
 2108  2455  2454 1
 2109  2457  2456 1
 2110  2458  2457 1
 2111  2459  2457 1
 2112  2460  2457 1
 2113  2461  2460 1
 2114  2463  2462 1
 2115  2464  2463 1
 2116  2465  2463 1
 2117  2466  2463 1
 2118  2467  2466 1
 2119  2469  2468 1
 2120  2470  2469 1
 2121  2471  2469 1
 2122  2472  2469 1
 2123  2473  2472 1
 2124  2475  2474 1
 2125  2476  2475 1
 2126  2477  2475 1
 2127  2478  2475 1
 2128  2479  2478 1
 2129  2481  2480 1
 2130  2482  2481 1
 2131  2483  2481 1
 2132  2484  2481 1
 2133  2485  2484 1
 2134  2487  2486 1
 2135  2488  2487 1
 2136  2489  2487 1
 2137  2490  2487 1
 2138  2491  2490 1
 2139  2493  2492 1
 2140  2494  2493 1
 2141  2495  2493 1
 2142  2496  2493 1
 2143  2497  2496 1
 2144  2499  2498 1
 2145  2500  2499 1
 2146  2501  2499 1
 2147  2502  2499 1
 2148  2503  2502 1
 2149  2505  2504 1
 2150  2506  2505 1
 2151  2507  2505 1
 2152  2508  2505 1
 2153  2509  2508 1
 2154  2511  2510 1
 2155  2512  2511 1
 2156  2513  2511 1
 2157  2514  2511 1
 2158  2515  2514 1
 2159  2517  2516 1
 2160  2518  2517 1
 2161  2519  2517 1
 2162  2520  2517 1
 2163  2521  2520 1
 2164  2523  2522 1
 2165  2524  2523 1
 2166  2525  2523 1
 2167  2526  2523 1
 2168  2527  2526 1
 2169  2529  2528 1
 2170  2530  2529 1
 2171  2531  2529 1
 2172  2532  2529 1
 2173  2533  2532 1
 2174  2535  2534 1
 2175  2536  2535 1
 2176  2537  2535 1
 2177  2538  2535 1
 2178  2539  2538 1
 2179  2541  2540 1
 2180  2542  2541 1
 2181  2543  2541 1
 2182  2544  2541 1
 2183  2545  2544 1
 2184  2547  2546 1
 2185  2548  2547 1
 2186  2549  2547 1
 2187  2550  2547 1
 2188  2551  2550 1
 2189  2553  2552 1
 2190  2554  2553 1
 2191  2555  2553 1
 2192  2556  2553 1
 2193  2557  2556 1
 2194  2559  2558 1
 2195  2560  2559 1
 2196  2561  2559 1
 2197  2562  2559 1
 2198  2563  2562 1
 2199  2565  2564 1
 2200  2566  2565 1
 2201  2567  2565 1
 2202  2568  2565 1
 2203  2569  2568 1
 2204  2571  2570 1
 2205  2572  2571 1
 2206  2573  2571 1
 2207  2574  2571 1
 2208  2575  2574 1
 2209  2577  2576 1
 2210  2578  2577 1
 2211  2579  2577 1
 2212  2580  2577 1
 2213  2581  2580 1
 2214  2583  2582 1
 2215  2584  2583 1
 2216  2585  2583 1
 2217  2586  2583 1
 2218  2587  2586 1
 2219  2589  2588 1
 2220  2590  2589 1
 2221  2591  2589 1
 2222  2592  2589 1
 2223  2593  2592 1
 2224  2595  2594 1
 2225  2596  2595 1
 2226  2597  2595 1
 2227  2598  2595 1
 2228  2599  2598 1
 2229  2601  2600 1
 2230  2602  2601 1
 2231  2603  2601 1
 2232  2604  2601 1
 2233  2605  2604 1
 2234  2607  2606 1
 2235  2608  2607 1
 2236  2609  2607 1
 2237  2610  2607 1
 2238  2611  2610 1
 2239  2613  2612 1
 2240  2614  2613 1
 2241  2615  2613 1
 2242  2616  2613 1
 2243  2617  2616 1
 2244  2619  2618 1
 2245  2620  2619 1
 2246  2621  2619 1
 2247  2622  2619 1
 2248  2623  2622 1
 2249  2625  2624 1
 2250  2626  2625 1
 2251  2627  2625 1
 2252  2628  2625 1
 2253  2629  2628 1
 2254  2631  2630 1
 2255  2632  2631 1
 2256  2633  2631 1
 2257  2634  2631 1
 2258  2635  2634 1
 2259  2637  2636 1
 2260  2638  2637 1
 2261  2639  2637 1
 2262  2640  2637 1
 2263  2641  2640 1
 2264  2643  2642 1
 2265  2644  2643 1
 2266  2645  2643 1
 2267  2646  2643 1
 2268  2647  2646 1
 2269  2649  2648 1
 2270  2650  2649 1
 2271  2651  2649 1
 2272  2652  2649 1
 2273  2653  2652 1
 2274  2655  2654 1
 2275  2656  2655 1
 2276  2657  2655 1
 2277  2658  2655 1
 2278  2659  2658 1
 2279  2661  2660 1
 2280  2662  2661 1
 2281  2663  2661 1
 2282  2664  2661 1
 2283  2665  2664 1
 2284  2667  2666 1
 2285  2668  2667 1
 2286  2669  2667 1
 2287  2670  2667 1
 2288  2671  2670 1
 2289  2673  2672 1
 2290  2674  2673 1
 2291  2675  2673 1
 2292  2676  2673 1
 2293  2677  2676 1
 2294  2679  2678 1
 2295  2680  2679 1
 2296  2681  2679 1
 2297  2682  2679 1
 2298  2683  2682 1
 2299  2685  2684 1
 2300  2686  2685 1
 2301  2687  2685 1
 2302  2688  2685 1
 2303  2689  2688 1
 2304  2691  2690 1
 2305  2692  2691 1
 2306  2693  2691 1
 2307  2694  2691 1
 2308  2695  2694 1
 2309  2697  2696 1
 2310  2698  2697 1
 2311  2699  2697 1
 2312  2700  2697 1
 2313  2701  2700 1
 2314  2703  2702 1
 2315  2704  2703 1
 2316  2705  2703 1
 2317  2706  2703 1
 2318  2707  2706 1
 2319  2709  2708 1
 2320  2710  2709 1
 2321  2711  2709 1
 2322  2712  2709 1
 2323  2713  2712 1
 2324  2715  2714 1
 2325  2716  2715 1
 2326  2717  2715 1
 2327  2718  2715 1
 2328  2719  2718 1
 2329  2721  2720 1
 2330  2722  2721 1
 2331  2723  2721 1
 2332  2724  2721 1
 2333  2725  2724 1
 2334  2727  2726 1
 2335  2728  2727 1
 2336  2729  2727 1
 2337  2730  2727 1
 2338  2731  2730 1
 2339  2733  2732 1
 2340  2734  2733 1
 2341  2735  2733 1
 2342  2736  2733 1
 2343  2737  2736 1
 2344  2739  2738 1
 2345  2740  2739 1
 2346  2741  2739 1
 2347  2742  2739 1
 2348  2743  2742 1
 2349  2745  2744 1
 2350  2746  2745 1
 2351  2747  2745 1
 2352  2748  2745 1
 2353  2749  2748 1
 2354  2751  2750 1
 2355  2752  2751 1
 2356  2753  2751 1
 2357  2754  2751 1
 2358  2755  2754 1
 2359  2757  2756 1
 2360  2758  2757 1
 2361  2759  2757 1
 2362  2760  2757 1
 2363  2761  2760 1
 2364  2763  2762 1
 2365  2764  2763 1
 2366  2765  2763 1
 2367  2766  2763 1
 2368  2767  2766 1
 2369  2769  2768 1
 2370  2770  2769 1
 2371  2771  2769 1
 2372  2772  2769 1
 2373  2773  2772 1
 2374  2775  2774 1
 2375  2776  2775 1
 2376  2777  2775 1
 2377  2778  2775 1
 2378  2779  2778 1
 2379  2781  2780 1
 2380  2782  2781 1
 2381  2783  2781 1
 2382  2784  2781 1
 2383  2785  2784 1
 2384  2787  2786 1
 2385  2788  2787 1
 2386  2789  2787 1
 2387  2790  2787 1
 2388  2791  2790 1
 2389  2793  2792 1
 2390  2794  2793 1
 2391  2795  2793 1
 2392  2796  2793 1
 2393  2797  2796 1
 2394  2799  2798 1
 2395  2800  2799 1
 2396  2801  2799 1
 2397  2802  2799 1
 2398  2803  2802 1
 2399  2805  2804 1
 2400  2806  2805 1
 2401  2807  2805 1
 2402  2808  2805 1
 2403  2809  2808 1
 2404  2811  2810 1
 2405  2812  2811 1
 2406  2813  2811 1
 2407  2814  2811 1
 2408  2815  2814 1
 2409  2817  2816 1
 2410  2818  2817 1
 2411  2819  2817 1
 2412  2820  2817 1
 2413  2821  2820 1
 2414  2823  2822 1
 2415  2824  2823 1
 2416  2825  2823 1
 2417  2826  2823 1
 2418  2827  2826 1
 2419  2829  2828 1
 2420  2830  2829 1
 2421  2831  2829 1
 2422  2832  2829 1
 2423  2833  2832 1
 2424  2835  2834 1
 2425  2836  2835 1
 2426  2837  2835 1
 2427  2838  2835 1
 2428  2839  2838 1
 2429  2841  2840 1
 2430  2842  2841 1
 2431  2843  2841 1
 2432  2844  2841 1
 2433  2845  2844 1
 2434  2847  2846 1
 2435  2848  2847 1
 2436  2849  2847 1
 2437  2850  2847 1
 2438  2851  2850 1
 2439  2853  2852 1
 2440  2854  2853 1
 2441  2855  2853 1
 2442  2856  2853 1
 2443  2857  2856 1
 2444  2859  2858 1
 2445  2860  2859 1
 2446  2861  2859 1
 2447  2862  2859 1
 2448  2863  2862 1
 2449  2865  2864 1
 2450  2866  2865 1
 2451  2867  2865 1
 2452  2868  2865 1
 2453  2869  2868 1
 2454  2871  2870 1
 2455  2872  2871 1
 2456  2873  2871 1
 2457  2874  2871 1
 2458  2875  2874 1
 2459  2877  2876 1
 2460  2878  2877 1
 2461  2879  2877 1
 2462  2880  2877 1
 2463  2881  2880 1
 2464  2883  2882 1
 2465  2884  2883 1
 2466  2885  2883 1
 2467  2886  2883 1
 2468  2887  2886 1
 2469  2889  2888 1
 2470  2890  2889 1
 2471  2891  2889 1
 2472  2892  2889 1
 2473  2893  2892 1
 2474  2895  2894 1
 2475  2896  2895 1
 2476  2897  2895 1
 2477  2898  2895 1
 2478  2899  2898 1
 2479  2901  2900 1
 2480  2902  2901 1
 2481  2903  2901 1
 2482  2904  2901 1
 2483  2905  2904 1
 2484  2907  2906 1
 2485  2908  2907 1
 2486  2909  2907 1
 2487  2910  2907 1
 2488  2911  2910 1
 2489  2913  2912 1
 2490  2914  2913 1
 2491  2915  2913 1
 2492  2916  2913 1
 2493  2917  2916 1
 2494  2919  2918 1
 2495  2920  2919 1
 2496  2921  2919 1
 2497  2922  2919 1
 2498  2923  2922 1
 2499  2925  2924 1
 2500  2926  2925 1
 2501  2927  2925 1
 2502  2928  2925 1
 2503  2929  2928 1
 2504  2931  2930 1
 2505  2932  2931 1
 2506  2933  2931 1
 2507  2934  2931 1
 2508  2935  2934 1
 2509  2937  2936 1
 2510  2938  2937 1
 2511  2939  2937 1
 2512  2940  2937 1
 2513  2941  2940 1
 2514  2943  2942 1
 2515  2944  2943 1
 2516  2945  2943 1
 2517  2946  2943 1
 2518  2947  2946 1
 2519  2949  2948 1
 2520  2950  2949 1
 2521  2951  2949 1
 2522  2952  2949 1
 2523  2953  2952 1
 2524  2955  2954 1
 2525  2956  2955 1
 2526  2957  2955 1
 2527  2958  2955 1
 2528  2959  2958 1
 2529  2961  2960 1
 2530  2962  2961 1
 2531  2963  2961 1
 2532  2964  2961 1
 2533  2965  2964 1
 2534  2967  2966 1
 2535  2968  2967 1
 2536  2969  2967 1
 2537  2970  2967 1
 2538  2971  2970 1
 2539  2973  2972 1
 2540  2974  2973 1
 2541  2975  2973 1
 2542  2976  2973 1
 2543  2977  2976 1
 2544  2979  2978 1
 2545  2980  2979 1
 2546  2981  2979 1
 2547  2982  2979 1
 2548  2983  2982 1
 2549  2985  2984 1
 2550  2986  2985 1
 2551  2987  2985 1
 2552  2988  2985 1
 2553  2989  2988 1
 2554  2991  2990 1
 2555  2992  2991 1
 2556  2993  2991 1
 2557  2994  2991 1
 2558  2995  2994 1
 2559  2997  2996 1
 2560  2998  2997 1
 2561  2999  2997 1
 2562  3000  2997 1
 2563  3001  3000 1
 2564  3003  3002 1
 2565  3004  3003 1
 2566  3005  3003 1
 2567  3006  3003 1
 2568  3007  3006 1
 2569  3009  3008 1
 2570  3010  3009 1
 2571  3011  3009 1
 2572  3012  3009 1
 2573  3013  3012 1
 2574  3015  3014 1
 2575  3016  3015 1
 2576  3017  3015 1
 2577  3018  3015 1
 2578  3019  3018 1
 2579  3021  3020 1
 2580  3022  3021 1
 2581  3023  3021 1
 2582  3024  3021 1
 2583  3025  3024 1
 2584  3027  3026 1
 2585  3028  3027 1
 2586  3029  3027 1
 2587  3030  3027 1
 2588  3031  3030 1
 2589  3033  3032 1
 2590  3034  3033 1
 2591  3035  3033 1
 2592  3036  3033 1
 2593  3037  3036 1
 2594  3039  3038 1
 2595  3040  3039 1
 2596  3041  3039 1
 2597  3042  3039 1
 2598  3043  3042 1
 2599  3045  3044 1
 2600  3046  3045 1
 2601  3047  3045 1
 2602  3048  3045 1
 2603  3049  3048 1
 2604  3051  3050 1
 2605  3052  3051 1
 2606  3053  3051 1
 2607  3054  3051 1
 2608  3055  3054 1
 2609  3057  3056 1
 2610  3058  3057 1
 2611  3059  3057 1
 2612  3060  3057 1
 2613  3061  3060 1
 2614  3063  3062 1
 2615  3064  3063 1
 2616  3065  3063 1
 2617  3066  3063 1
 2618  3067  3066 1
 2619  3069  3068 1
 2620  3070  3069 1
 2621  3071  3069 1
 2622  3072  3069 1
 2623  3073  3072 1
 2624  3075  3074 1
 2625  3076  3075 1
 2626  3077  3075 1
 2627  3078  3075 1
 2628  3079  3078 1
 2629  3081  3080 1
 2630  3082  3081 1
 2631  3083  3081 1
 2632  3084  3081 1
 2633  3085  3084 1
 2634  3087  3086 1
 2635  3088  3087 1
 2636  3089  3087 1
 2637  3090  3087 1
 2638  3091  3090 1
 2639  3093  3092 1
 2640  3094  3093 1
 2641  3095  3093 1
 2642  3096  3093 1
 2643  3097  3096 1
 2644  3099  3098 1
 2645  3100  3099 1
 2646  3101  3099 1
 2647  3102  3099 1
 2648  3103  3102 1
 2649  3105  3104 1
 2650  3106  3105 1
 2651  3107  3105 1
 2652  3108  3105 1
 2653  3109  3108 1
 2654  3111  3110 1
 2655  3112  3111 1
 2656  3113  3111 1
 2657  3114  3111 1
 2658  3115  3114 1
 2659  3117  3116 1
 2660  3118  3117 1
 2661  3119  3117 1
 2662  3120  3117 1
 2663  3121  3120 1
 2664  3123  3122 1
 2665  3124  3123 1
 2666  3125  3123 1
 2667  3126  3123 1
 2668  3127  3126 1
 2669  3129  3128 1
 2670  3130  3129 1
 2671  3131  3129 1
 2672  3132  3129 1
 2673  3133  3132 1
 2674  3135  3134 1
 2675  3136  3135 1
 2676  3137  3135 1
 2677  3138  3135 1
 2678  3139  3138 1
 2679  3141  3140 1
 2680  3142  3141 1
 2681  3143  3141 1
 2682  3144  3141 1
 2683  3145  3144 1
 2684  3147  3146 1
 2685  3148  3147 1
 2686  3149  3147 1
 2687  3150  3147 1
 2688  3151  3150 1
 2689  3153  3152 1
 2690  3154  3153 1
 2691  3155  3153 1
 2692  3156  3153 1
 2693  3157  3156 1
 2694  3159  3158 1
 2695  3160  3159 1
 2696  3161  3159 1
 2697  3162  3159 1
 2698  3163  3162 1
 2699  3165  3164 1
 2700  3166  3165 1
 2701  3167  3165 1
 2702  3168  3165 1
 2703  3169  3168 1
 2704  3171  3170 1
 2705  3172  3171 1
 2706  3173  3171 1
 2707  3174  3171 1
 2708  3175  3174 1
 2709  3177  3176 1
 2710  3178  3177 1
 2711  3179  3177 1
 2712  3180  3177 1
 2713  3181  3180 1
 2714  3183  3182 1
 2715  3184  3183 1
 2716  3185  3183 1
 2717  3186  3183 1
 2718  3187  3186 1
 2719  3189  3188 1
 2720  3190  3189 1
 2721  3191  3189 1
 2722  3192  3189 1
 2723  3193  3192 1
 2724  3195  3194 1
 2725  3196  3195 1
 2726  3197  3195 1
 2727  3198  3195 1
 2728  3199  3198 1
 2729  3201  3200 1
 2730  3202  3201 1
 2731  3203  3201 1
 2732  3204  3201 1
 2733  3205  3204 1
 2734  3207  3206 1
 2735  3208  3207 1
 2736  3209  3207 1
 2737  3210  3207 1
 2738  3211  3210 1
 2739  3213  3212 1
 2740  3214  3213 1
 2741  3215  3213 1
 2742  3216  3213 1
 2743  3217  3216 1
 2744  3219  3218 1
 2745  3220  3219 1
 2746  3221  3219 1
 2747  3222  3219 1
 2748  3223  3222 1
 2749  3225  3224 1
 2750  3226  3225 1
 2751  3227  3225 1
 2752  3228  3225 1
 2753  3229  3228 1
 2754  3231  3230 1
 2755  3232  3231 1
 2756  3233  3231 1
 2757  3234  3231 1
 2758  3235  3234 1
 2759  3237  3236 1
 2760  3238  3237 1
 2761  3239  3237 1
 2762  3240  3237 1
 2763  3241  3240 1
 2764  3243  3242 1
 2765  3244  3243 1
 2766  3245  3243 1
 2767  3246  3243 1
 2768  3247  3246 1
 2769  3249  3248 1
 2770  3250  3249 1
 2771  3251  3249 1
 2772  3252  3249 1
 2773  3253  3252 1
 2774  3255  3254 1
 2775  3256  3255 1
 2776  3257  3255 1
 2777  3258  3255 1
 2778  3259  3258 1
 2779  3261  3260 1
 2780  3262  3261 1
 2781  3263  3261 1
 2782  3264  3261 1
 2783  3265  3264 1
 2784  3267  3266 1
 2785  3268  3267 1
 2786  3269  3267 1
 2787  3270  3267 1
 2788  3271  3270 1
 2789  3273  3272 1
 2790  3274  3273 1
 2791  3275  3273 1
 2792  3276  3273 1
 2793  3277  3276 1
 2794  3279  3278 1
 2795  3280  3279 1
 2796  3281  3279 1
 2797  3282  3279 1
 2798  3283  3282 1
 2799  3285  3284 1
 2800  3286  3285 1
 2801  3287  3285 1
 2802  3288  3285 1
 2803  3289  3288 1
 2804  3291  3290 1
 2805  3292  3291 1
 2806  3293  3291 1
 2807  3294  3291 1
 2808  3295  3294 1
 2809  3297  3296 1
 2810  3298  3297 1
 2811  3299  3297 1
 2812  3300  3297 1
 2813  3301  3300 1
 2814  3303  3302 1
 2815  3304  3303 1
 2816  3305  3303 1
 2817  3306  3303 1
 2818  3307  3306 1
 2819  3309  3308 1
 2820  3310  3309 1
 2821  3311  3309 1
 2822  3312  3309 1
 2823  3313  3312 1
 2824  3315  3314 1
 2825  3316  3315 1
 2826  3317  3315 1
 2827  3318  3315 1
 2828  3319  3318 1
 2829  3321  3320 1
 2830  3322  3321 1
 2831  3323  3321 1
 2832  3324  3321 1
 2833  3325  3324 1
 2834  3327  3326 1
 2835  3328  3327 1
 2836  3329  3327 1
 2837  3330  3327 1
 2838  3331  3330 1
 2839  3333  3332 1
 2840  3334  3333 1
 2841  3335  3333 1
 2842  3336  3333 1
 2843  3337  3336 1
 2844  3339  3338 1
 2845  3340  3339 1
 2846  3341  3339 1
 2847  3342  3339 1
 2848  3343  3342 1
 2849  3345  3344 1
 2850  3346  3345 1
 2851  3347  3345 1
 2852  3348  3345 1
 2853  3349  3348 1
 2854  3351  3350 1
 2855  3352  3351 1
 2856  3353  3351 1
 2857  3354  3351 1
 2858  3355  3354 1
 2859  3357  3356 1
 2860  3358  3357 1
 2861  3359  3357 1
 2862  3360  3357 1
 2863  3361  3360 1
 2864  3363  3362 1
 2865  3364  3363 1
 2866  3365  3363 1
 2867  3366  3363 1
 2868  3367  3366 1
 2869  3369  3368 1
 2870  3370  3369 1
 2871  3371  3369 1
 2872  3372  3369 1
 2873  3373  3372 1
 2874  3375  3374 1
 2875  3376  3375 1
 2876  3377  3375 1
 2877  3378  3375 1
 2878  3379  3378 1
 2879  3381  3380 1
 2880  3382  3381 1
 2881  3383  3381 1
 2882  3384  3381 1
 2883  3385  3384 1
 2884  3387  3386 1
 2885  3388  3387 1
 2886  3389  3387 1
 2887  3390  3387 1
 2888  3391  3390 1
 2889  3393  3392 1
 2890  3394  3393 1
 2891  3395  3393 1
 2892  3396  3393 1
 2893  3397  3396 1
 2894  3399  3398 1
 2895  3400  3399 1
 2896  3401  3399 1
 2897  3402  3399 1
 2898  3403  3402 1
 2899  3405  3404 1
 2900  3406  3405 1
 2901  3407  3405 1
 2902  3408  3405 1
 2903  3409  3408 1
 2904  3411  3410 1
 2905  3412  3411 1
 2906  3413  3411 1
 2907  3414  3411 1
 2908  3415  3414 1
 2909  3417  3416 1
 2910  3418  3417 1
 2911  3419  3417 1
 2912  3420  3417 1
 2913  3421  3420 1
 2914  3423  3422 1
 2915  3424  3423 1
 2916  3425  3423 1
 2917  3426  3423 1
 2918  3427  3426 1
 2919  3429  3428 1
 2920  3430  3429 1
 2921  3431  3429 1
 2922  3432  3429 1
 2923  3433  3432 1
 2924  3435  3434 1
 2925  3436  3435 1
 2926  3437  3435 1
 2927  3438  3435 1
 2928  3439  3438 1
 2929  3441  3440 1
 2930  3442  3441 1
 2931  3443  3441 1
 2932  3444  3441 1
 2933  3445  3444 1
 2934  3447  3446 1
 2935  3448  3447 1
 2936  3449  3447 1
 2937  3450  3447 1
 2938  3451  3450 1
 2939  3453  3452 1
 2940  3454  3453 1
 2941  3455  3453 1
 2942  3456  3453 1
 2943  3457  3456 1
 2944  3459  3458 1
 2945  3460  3459 1
 2946  3461  3459 1
 2947  3462  3459 1
 2948  3463  3462 1
 2949  3465  3464 1
 2950  3466  3465 1
 2951  3467  3465 1
 2952  3468  3465 1
 2953  3469  3468 1
 2954  3471  3470 1
 2955  3472  3471 1
 2956  3473  3471 1
 2957  3474  3471 1
 2958  3475  3474 1
 2959  3477  3476 1
 2960  3478  3477 1
 2961  3479  3477 1
 2962  3480  3477 1
 2963  3481  3480 1
 2964  3483  3482 1
 2965  3484  3483 1
 2966  3485  3483 1
 2967  3486  3483 1
 2968  3487  3486 1
 2969  3489  3488 1
 2970  3490  3489 1
 2971  3491  3489 1
 2972  3492  3489 1
 2973  3493  3492 1
 2974  3495  3494 1
 2975  3496  3495 1
 2976  3497  3495 1
 2977  3498  3495 1
 2978  3499  3498 1
 2979  3501  3500 1
 2980  3502  3501 1
 2981  3503  3501 1
 2982  3504  3501 1
 2983  3505  3504 1
 2984  3507  3506 1
 2985  3508  3507 1
 2986  3509  3507 1
 2987  3510  3507 1
 2988  3511  3510 1
 2989  3513  3512 1
 2990  3514  3513 1
 2991  3515  3513 1
 2992  3516  3513 1
 2993  3517  3516 1
 2994  3519  3518 1
 2995  3520  3519 1
 2996  3521  3519 1
 2997  3522  3519 1
 2998  3523  3522 1
 2999  3525  3524 1
 3000  3526  3525 1
 3001  3527  3525 1
 3002  3528  3525 1
 3003  3529  3528 1
 3004  3531  3530 1
 3005  3532  3531 1
 3006  3533  3531 1
 3007  3534  3531 1
 3008  3535  3534 1
 3009  3537  3536 1
 3010  3538  3537 1
 3011  3539  3537 1
 3012  3540  3537 1
 3013  3541  3540 1
 3014  3543  3542 1
 3015  3544  3543 1
 3016  3545  3543 1
 3017  3546  3543 1
 3018  3547  3546 1
 3019  3549  3548 1
 3020  3550  3549 1
 3021  3551  3549 1
 3022  3552  3549 1
 3023  3553  3552 1
 3024  3555  3554 1
 3025  3556  3555 1
 3026  3557  3555 1
 3027  3558  3555 1
 3028  3559  3558 1
 3029  3561  3560 1
 3030  3562  3561 1
 3031  3563  3561 1
 3032  3564  3561 1
 3033  3565  3564 1
 3034  3567  3566 1
 3035  3568  3567 1
 3036  3569  3567 1
 3037  3570  3567 1
 3038  3571  3570 1
 3039  3573  3572 1
 3040  3574  3573 1
 3041  3575  3573 1
 3042  3576  3573 1
 3043  3577  3576 1
 3044  3579  3578 1
 3045  3580  3579 1
 3046  3581  3579 1
 3047  3582  3579 1
 3048  3583  3582 1
 3049  3585  3584 1
 3050  3586  3585 1
 3051  3587  3585 1
 3052  3588  3585 1
 3053  3589  3588 1
 3054  3591  3590 1
 3055  3592  3591 1
 3056  3593  3591 1
 3057  3594  3591 1
 3058  3595  3594 1
 3059  3597  3596 1
 3060  3598  3597 1
 3061  3599  3597 1
 3062  3600  3597 1
 3063  3601  3600 1
 3064  3603  3602 1
 3065  3604  3603 1
 3066  3605  3603 1
 3067  3606  3603 1
 3068  3607  3606 1
 3069  3609  3608 1
 3070  3610  3609 1
 3071  3611  3609 1
 3072  3612  3609 1
 3073  3613  3612 1
 3074  3615  3614 1
 3075  3616  3615 1
 3076  3617  3615 1
 3077  3618  3615 1
 3078  3619  3618 1
 3079  3621  3620 1
 3080  3622  3621 1
 3081  3623  3621 1
 3082  3624  3621 1
 3083  3625  3624 1
 3084  3627  3626 1
 3085  3628  3627 1
 3086  3629  3627 1
 3087  3630  3627 1
 3088  3631  3630 1
 3089  3633  3632 1
 3090  3634  3633 1
 3091  3635  3633 1
 3092  3636  3633 1
 3093  3637  3636 1
 3094  3639  3638 1
 3095  3640  3639 1
 3096  3641  3639 1
 3097  3642  3639 1
 3098  3643  3642 1
 3099  3645  3644 1
 3100  3646  3645 1
 3101  3647  3645 1
 3102  3648  3645 1
 3103  3649  3648 1
 3104  3651  3650 1
 3105  3652  3651 1
 3106  3653  3651 1
 3107  3654  3651 1
 3108  3655  3654 1
 3109  3657  3656 1
 3110  3658  3657 1
 3111  3659  3657 1
 3112  3660  3657 1
 3113  3661  3660 1
 3114  3663  3662 1
 3115  3664  3663 1
 3116  3665  3663 1
 3117  3666  3663 1
 3118  3667  3666 1
 3119  3669  3668 1
 3120  3670  3669 1
 3121  3671  3669 1
 3122  3672  3669 1
 3123  3673  3672 1
 3124  3675  3674 1
 3125  3676  3675 1
 3126  3677  3675 1
 3127  3678  3675 1
 3128  3679  3678 1
 3129  3681  3680 1
 3130  3682  3681 1
 3131  3683  3681 1
 3132  3684  3681 1
 3133  3685  3684 1
 3134  3687  3686 1
 3135  3688  3687 1
 3136  3689  3687 1
 3137  3690  3687 1
 3138  3691  3690 1
 3139  3693  3692 1
 3140  3694  3693 1
 3141  3695  3693 1
 3142  3696  3693 1
 3143  3697  3696 1
 3144  3699  3698 1
 3145  3700  3699 1
 3146  3701  3699 1
 3147  3702  3699 1
 3148  3703  3702 1
 3149  3705  3704 1
 3150  3706  3705 1
 3151  3707  3705 1
 3152  3708  3705 1
 3153  3709  3708 1
 3154  3711  3710 1
 3155  3712  3711 1
 3156  3713  3711 1
 3157  3714  3711 1
 3158  3715  3714 1
 3159  3717  3716 1
 3160  3718  3717 1
 3161  3719  3717 1
 3162  3720  3717 1
 3163  3721  3720 1
 3164  3723  3722 1
 3165  3724  3723 1
 3166  3725  3723 1
 3167  3726  3723 1
 3168  3727  3726 1
 3169  3729  3728 1
 3170  3730  3729 1
 3171  3731  3729 1
 3172  3732  3729 1
 3173  3733  3732 1
 3174  3735  3734 1
 3175  3736  3735 1
 3176  3737  3735 1
 3177  3738  3735 1
 3178  3739  3738 1
 3179  3741  3740 1
 3180  3742  3741 1
 3181  3743  3741 1
 3182  3744  3741 1
 3183  3745  3744 1
 3184  3747  3746 1
 3185  3748  3747 1
 3186  3749  3747 1
 3187  3750  3747 1
 3188  3751  3750 1
 3189  3753  3752 1
 3190  3754  3753 1
 3191  3755  3753 1
 3192  3756  3753 1
 3193  3757  3756 1
 3194  3759  3758 1
 3195  3760  3759 1
 3196  3761  3759 1
 3197  3762  3759 1
 3198  3763  3762 1
 3199  3765  3764 1
 3200  3766  3765 1
 3201  3767  3765 1
 3202  3768  3765 1
 3203  3769  3768 1
 3204  3771  3770 1
 3205  3772  3771 1
 3206  3773  3771 1
 3207  3774  3771 1
 3208  3775  3774 1
 3209  3777  3776 1
 3210  3778  3777 1
 3211  3779  3777 1
 3212  3780  3777 1
 3213  3781  3780 1
 3214  3783  3782 1
 3215  3784  3783 1
 3216  3785  3783 1
 3217  3786  3783 1
 3218  3787  3786 1
 3219  3789  3788 1
 3220  3790  3789 1
 3221  3791  3789 1
 3222  3792  3789 1
 3223  3793  3792 1
 3224  3795  3794 1
 3225  3796  3795 1
 3226  3797  3795 1
 3227  3798  3795 1
 3228  3799  3798 1
 3229  3801  3800 1
 3230  3802  3801 1
 3231  3803  3801 1
 3232  3804  3801 1
 3233  3805  3804 1
 3234  3807  3806 1
 3235  3808  3807 1
 3236  3809  3807 1
 3237  3810  3807 1
 3238  3811  3810 1
 3239  3813  3812 1
 3240  3814  3813 1
 3241  3815  3813 1
 3242  3816  3813 1
 3243  3817  3816 1
 3244  3819  3818 1
 3245  3820  3819 1
 3246  3821  3819 1
 3247  3822  3819 1
 3248  3823  3822 1
 3249  3825  3824 1
 3250  3826  3825 1
 3251  3827  3825 1
 3252  3828  3825 1
 3253  3829  3828 1
 3254  3831  3830 1
 3255  3832  3831 1
 3256  3833  3831 1
 3257  3834  3831 1
 3258  3835  3834 1
 3259  3837  3836 1
 3260  3838  3837 1
 3261  3839  3837 1
 3262  3840  3837 1
 3263  3841  3840 1
 3264  3843  3842 1
 3265  3844  3843 1
 3266  3845  3843 1
 3267  3846  3843 1
 3268  3847  3846 1
 3269  3849  3848 1
 3270  3850  3849 1
 3271  3851  3849 1
 3272  3852  3849 1
 3273  3853  3852 1
 3274  3855  3854 1
 3275  3856  3855 1
 3276  3857  3855 1
 3277  3858  3855 1
 3278  3859  3858 1
 3279  3861  3860 1
 3280  3862  3861 1
 3281  3863  3861 1
 3282  3864  3861 1
 3283  3865  3864 1
 3284  3867  3866 1
 3285  3868  3867 1
 3286  3869  3867 1
 3287  3870  3867 1
 3288  3871  3870 1
 3289  3873  3872 1
 3290  3874  3873 1
 3291  3875  3873 1
 3292  3876  3873 1
 3293  3877  3876 1
 3294  3879  3878 1
 3295  3880  3879 1
 3296  3881  3879 1
 3297  3882  3879 1
 3298  3883  3882 1
 3299  3885  3884 1
 3300  3886  3885 1
 3301  3887  3885 1
 3302  3888  3885 1
 3303  3889  3888 1
 3304  3891  3890 1
 3305  3892  3891 1
 3306  3893  3891 1
 3307  3894  3891 1
 3308  3895  3894 1
 3309  3897  3896 1
 3310  3898  3897 1
 3311  3899  3897 1
 3312  3900  3897 1
 3313  3901  3900 1
 3314  3903  3902 1
 3315  3904  3903 1
 3316  3905  3903 1
 3317  3906  3903 1
 3318  3907  3906 1
 3319  3909  3908 1
 3320  3910  3909 1
 3321  3911  3909 1
 3322  3912  3909 1
 3323  3913  3912 1
 3324  3915  3914 1
 3325  3916  3915 1
 3326  3917  3915 1
 3327  3918  3915 1
 3328  3919  3918 1
 3329  3921  3920 1
 3330  3922  3921 1
 3331  3923  3921 1
 3332  3924  3921 1
 3333  3925  3924 1
 3334  3927  3926 1
 3335  3928  3927 1
 3336  3929  3927 1
 3337  3930  3927 1
 3338  3931  3930 1
 3339  3933  3932 1
 3340  3934  3933 1
 3341  3935  3933 1
 3342  3936  3933 1
 3343  3937  3936 1
 3344  3939  3938 1
 3345  3940  3939 1
 3346  3941  3939 1
 3347  3942  3939 1
 3348  3943  3942 1
 3349  3945  3944 1
 3350  3946  3945 1
 3351  3947  3945 1
 3352  3948  3945 1
 3353  3949  3948 1
 3354  3951  3950 1
 3355  3952  3951 1
 3356  3953  3951 1
 3357  3954  3951 1
 3358  3955  3954 1
 3359  3957  3956 1
 3360  3958  3957 1
 3361  3959  3957 1
 3362  3960  3957 1
 3363  3961  3960 1
 3364  3963  3962 1
 3365  3964  3963 1
 3366  3965  3963 1
 3367  3966  3963 1
 3368  3967  3966 1
 3369  3969  3968 1
 3370  3970  3969 1
 3371  3971  3969 1
 3372  3972  3969 1
 3373  3973  3972 1
 3374  3975  3974 1
 3375  3976  3975 1
 3376  3977  3975 1
 3377  3978  3975 1
 3378  3979  3978 1
 3379  3981  3980 1
 3380  3982  3981 1
 3381  3983  3981 1
 3382  3984  3981 1
 3383  3985  3984 1
 3384  3987  3986 1
 3385  3988  3987 1
 3386  3989  3987 1
 3387  3990  3987 1
 3388  3991  3990 1
 3389  3993  3992 1
 3390  3994  3993 1
 3391  3995  3993 1
 3392  3996  3993 1
 3393  3997  3996 1
 3394  3999  3998 1
 3395  4000  3999 1
 3396  4001  3999 1
 3397  4002  3999 1
 3398  4003  4002 1
 3399  4005  4004 1
 3400  4006  4005 1
 3401  4007  4005 1
 3402  4008  4005 1
 3403  4009  4008 1
 3404  4011  4010 1
 3405  4012  4011 1
 3406  4013  4011 1
 3407  4014  4011 1
 3408  4015  4014 1
 3409  4017  4016 1
 3410  4018  4017 1
 3411  4019  4017 1
 3412  4020  4017 1
 3413  4021  4020 1
 3414  4023  4022 1
 3415  4024  4023 1
 3416  4025  4023 1
 3417  4026  4023 1
 3418  4027  4026 1
 3419  4029  4028 1
 3420  4030  4029 1
 3421  4031  4029 1
 3422  4032  4029 1
 3423  4033  4032 1
 3424  4035  4034 1
 3425  4036  4035 1
 3426  4037  4035 1
 3427  4038  4035 1
 3428  4039  4038 1
 3429  4041  4040 1
 3430  4042  4041 1
 3431  4043  4041 1
 3432  4044  4041 1
 3433  4045  4044 1
 3434  4047  4046 1
 3435  4048  4047 1
 3436  4049  4047 1
 3437  4050  4047 1
 3438  4051  4050 1
 3439  4053  4052 1
 3440  4054  4053 1
 3441  4055  4053 1
 3442  4056  4053 1
 3443  4057  4056 1
 3444  4059  4058 1
 3445  4060  4059 1
 3446  4061  4059 1
 3447  4062  4059 1
 3448  4063  4062 1
 3449  4065  4064 1
 3450  4066  4065 1
 3451  4067  4065 1
 3452  4068  4065 1
 3453  4069  4068 1
 3454  4071  4070 1
 3455  4072  4071 1
 3456  4073  4071 1
 3457  4074  4071 1
 3458  4075  4074 1
 3459  4077  4076 1
 3460  4078  4077 1
 3461  4079  4077 1
 3462  4080  4077 1
 3463  4081  4080 1
 3464  4083  4082 1
 3465  4084  4083 1
 3466  4085  4083 1
 3467  4086  4083 1
 3468  4087  4086 1
 3469  4089  4088 1
 3470  4090  4089 1
 3471  4091  4089 1
 3472  4092  4089 1
 3473  4093  4092 1
 3474  4095  4094 1
 3475  4096  4095 1
 3476  4097  4095 1
 3477  4098  4095 1
 3478  4099  4098 1
 3479  4101  4100 1
 3480  4102  4101 1
 3481  4103  4101 1
 3482  4104  4101 1
 3483  4105  4104 1
 3484  4107  4106 1
 3485  4108  4107 1
 3486  4109  4107 1
 3487  4110  4107 1
 3488  4111  4110 1
 3489  4113  4112 1
 3490  4114  4113 1
 3491  4115  4113 1
 3492  4116  4113 1
 3493  4117  4116 1
 3494  4119  4118 1
 3495  4120  4119 1
 3496  4121  4119 1
 3497  4122  4119 1
 3498  4123  4122 1
 3499  4125  4124 1
 3500  4126  4125 1
 3501  4127  4125 1
 3502  4128  4125 1
 3503  4129  4128 1
 3504  4131  4130 1
 3505  4132  4131 1
 3506  4133  4131 1
 3507  4134  4131 1
 3508  4135  4134 1
 3509  4137  4136 1
 3510  4138  4137 1
 3511  4139  4137 1
 3512  4140  4137 1
 3513  4141  4140 1
 3514  4143  4142 1
 3515  4144  4143 1
 3516  4145  4143 1
 3517  4146  4143 1
 3518  4147  4146 1
 3519  4149  4148 1
 3520  4150  4149 1
 3521  4151  4149 1
 3522  4152  4149 1
 3523  4153  4152 1
 3524  4155  4154 1
 3525  4156  4155 1
 3526  4157  4155 1
 3527  4158  4155 1
 3528  4159  4158 1
 3529  4161  4160 1
 3530  4162  4161 1
 3531  4163  4161 1
 3532  4164  4161 1
 3533  4165  4164 1
 3534  4167  4166 1
 3535  4168  4167 1
 3536  4169  4167 1
 3537  4170  4167 1
 3538  4171  4170 1
 3539  4173  4172 1
 3540  4174  4173 1
 3541  4175  4173 1
 3542  4176  4173 1
 3543  4177  4176 1
 3544  4179  4178 1
 3545  4180  4179 1
 3546  4181  4179 1
 3547  4182  4179 1
 3548  4183  4182 1
 3549  4185  4184 1
 3550  4186  4185 1
 3551  4187  4185 1
 3552  4188  4185 1
 3553  4189  4188 1
 3554  4191  4190 1
 3555  4192  4191 1
 3556  4193  4191 1
 3557  4194  4191 1
 3558  4195  4194 1
 3559  4197  4196 1
 3560  4198  4197 1
 3561  4199  4197 1
 3562  4200  4197 1
 3563  4201  4200 1
 3564  4203  4202 1
 3565  4204  4203 1
 3566  4205  4203 1
 3567  4206  4203 1
 3568  4207  4206 1
 3569  4209  4208 1
 3570  4210  4209 1
 3571  4211  4209 1
 3572  4212  4209 1
 3573  4213  4212 1
 3574  4215  4214 1
 3575  4216  4215 1
 3576  4217  4215 1
 3577  4218  4215 1
 3578  4219  4218 1
 3579  4221  4220 1
 3580  4222  4221 1
 3581  4223  4221 1
 3582  4224  4221 1
 3583  4225  4224 1
 3584  4227  4226 1
 3585  4228  4227 1
 3586  4229  4227 1
 3587  4230  4227 1
 3588  4231  4230 1
 3589  4233  4232 1
 3590  4234  4233 1
 3591  4235  4233 1
 3592  4236  4233 1
 3593  4237  4236 1
 3594  4239  4238 1
 3595  4240  4239 1
 3596  4241  4239 1
 3597  4242  4239 1
 3598  4243  4242 1
 3599  4245  4244 1
 3600  4246  4245 1
 3601  4247  4245 1
 3602  4248  4245 1
 3603  4249  4248 1
 3604  4251  4250 1
 3605  4252  4251 1
 3606  4253  4251 1
 3607  4254  4251 1
 3608  4255  4254 1
 3609  4257  4256 1
 3610  4258  4257 1
 3611  4259  4257 1
 3612  4260  4257 1
 3613  4261  4260 1
 3614  4263  4262 1
 3615  4264  4263 1
 3616  4265  4263 1
 3617  4266  4263 1
 3618  4267  4266 1
 3619  4269  4268 1
 3620  4270  4269 1
 3621  4271  4269 1
 3622  4272  4269 1
 3623  4273  4272 1
 3624  4275  4274 1
 3625  4276  4275 1
 3626  4277  4275 1
 3627  4278  4275 1
 3628  4279  4278 1
 3629  4281  4280 1
 3630  4282  4281 1
 3631  4283  4281 1
 3632  4284  4281 1
 3633  4285  4284 1
 3634  4287  4286 1
 3635  4288  4287 1
 3636  4289  4287 1
 3637  4290  4287 1
 3638  4291  4290 1
 3639  4293  4292 1
 3640  4294  4293 1
 3641  4295  4293 1
 3642  4296  4293 1
 3643  4297  4296 1
 3644  4299  4298 1
 3645  4300  4299 1
 3646  4301  4299 1
 3647  4302  4299 1
 3648  4303  4302 1
 3649  4305  4304 1
 3650  4306  4305 1
 3651  4307  4305 1
 3652  4308  4305 1
 3653  4309  4308 1
 3654  4311  4310 1
 3655  4312  4311 1
 3656  4313  4311 1
 3657  4314  4311 1
 3658  4315  4314 1
 3659  4317  4316 1
 3660  4318  4317 1
 3661  4319  4317 1
 3662  4320  4317 1
 3663  4321  4320 1
 3664  4323  4322 1
 3665  4324  4323 1
 3666  4325  4323 1
 3667  4326  4323 1
 3668  4327  4326 1
 3669  4329  4328 1
 3670  4330  4329 1
 3671  4331  4329 1
 3672  4332  4329 1
 3673  4333  4332 1
 3674  4335  4334 1
 3675  4336  4335 1
 3676  4337  4335 1
 3677  4338  4335 1
 3678  4339  4338 1
 3679  4341  4340 1
 3680  4342  4341 1
 3681  4343  4341 1
 3682  4344  4341 1
 3683  4345  4344 1
 3684  4347  4346 1
 3685  4348  4347 1
 3686  4349  4347 1
 3687  4350  4347 1
 3688  4351  4350 1
 3689  4353  4352 1
 3690  4354  4353 1
 3691  4355  4353 1
 3692  4356  4353 1
 3693  4357  4356 1
 3694  4359  4358 1
 3695  4360  4359 1
 3696  4361  4359 1
 3697  4362  4359 1
 3698  4363  4362 1
 3699  4365  4364 1
 3700  4366  4365 1
 3701  4367  4365 1
 3702  4368  4365 1
 3703  4369  4368 1
 3704  4371  4370 1
 3705  4372  4371 1
 3706  4373  4371 1
 3707  4374  4371 1
 3708  4375  4374 1
 3709  4377  4376 1
 3710  4378  4377 1
 3711  4379  4377 1
 3712  4380  4377 1
 3713  4381  4380 1
 3714  4383  4382 1
 3715  4384  4383 1
 3716  4385  4383 1
 3717  4386  4383 1
 3718  4387  4386 1
 3719  4389  4388 1
 3720  4390  4389 1
 3721  4391  4389 1
 3722  4392  4389 1
 3723  4393  4392 1
 3724  4395  4394 1
 3725  4396  4395 1
 3726  4397  4395 1
 3727  4398  4395 1
 3728  4399  4398 1
 3729  4401  4400 1
 3730  4402  4401 1
 3731  4403  4401 1
 3732  4404  4401 1
 3733  4405  4404 1
 3734  4407  4406 1
 3735  4408  4407 1
 3736  4409  4407 1
 3737  4410  4407 1
 3738  4411  4410 1
 3739  4413  4412 1
 3740  4414  4413 1
 3741  4415  4413 1
 3742  4416  4413 1
 3743  4417  4416 1
 3744  4419  4418 1
 3745  4420  4419 1
 3746  4421  4419 1
 3747  4422  4419 1
 3748  4423  4422 1
 3749  4425  4424 1
 3750  4426  4425 1
 3751  4427  4425 1
 3752  4428  4425 1
 3753  4429  4428 1
 3754  4431  4430 1
 3755  4432  4431 1
 3756  4433  4431 1
 3757  4434  4431 1
 3758  4435  4434 1
 3759  4437  4436 1
 3760  4438  4437 1
 3761  4439  4437 1
 3762  4440  4437 1
 3763  4441  4440 1
 3764  4443  4442 1
 3765  4444  4443 1
 3766  4445  4443 1
 3767  4446  4443 1
 3768  4447  4446 1
 3769  4449  4448 1
 3770  4450  4449 1
 3771  4451  4449 1
 3772  4452  4449 1
 3773  4453  4452 1
 3774  4455  4454 1
 3775  4456  4455 1
 3776  4457  4455 1
 3777  4458  4455 1
 3778  4459  4458 1
 3779  4461  4460 1
 3780  4462  4461 1
 3781  4463  4461 1
 3782  4464  4461 1
 3783  4465  4464 1
 3784  4467  4466 1
 3785  4468  4467 1
 3786  4469  4467 1
 3787  4470  4467 1
 3788  4471  4470 1
 3789  4473  4472 1
 3790  4474  4473 1
 3791  4475  4473 1
 3792  4476  4473 1
 3793  4477  4476 1
 3794  4479  4478 1
 3795  4480  4479 1
 3796  4481  4479 1
 3797  4482  4479 1
 3798  4483  4482 1
 3799  4485  4484 1
 3800  4486  4485 1
 3801  4487  4485 1
 3802  4488  4485 1
 3803  4489  4488 1
 3804  4491  4490 1
 3805  4492  4491 1
 3806  4493  4491 1
 3807  4494  4491 1
 3808  4495  4494 1
 3809  4497  4496 1
 3810  4498  4497 1
 3811  4499  4497 1
 3812  4500  4497 1
 3813  4501  4500 1
 3814  4503  4502 1
 3815  4504  4503 1
 3816  4505  4503 1
 3817  4506  4503 1
 3818  4507  4506 1
 3819  4509  4508 1
 3820  4510  4509 1
 3821  4511  4509 1
 3822  4512  4509 1
 3823  4513  4512 1
 3824  4515  4514 1
 3825  4516  4515 1
 3826  4517  4515 1
 3827  4518  4515 1
 3828  4519  4518 1
 3829  4521  4520 1
 3830  4522  4521 1
 3831  4523  4521 1
 3832  4524  4521 1
 3833  4525  4524 1
 3834  4527  4526 1
 3835  4528  4527 1
 3836  4529  4527 1
 3837  4530  4527 1
 3838  4531  4530 1
 3839  4533  4532 1
 3840  4534  4533 1
 3841  4535  4533 1
 3842  4536  4533 1
 3843  4537  4536 1
 3844  4539  4538 1
 3845  4540  4539 1
 3846  4541  4539 1
 3847  4542  4539 1
 3848  4543  4542 1
 3849  4545  4544 1
 3850  4546  4545 1
 3851  4547  4545 1
 3852  4548  4545 1
 3853  4549  4548 1
 3854  4551  4550 1
 3855  4552  4551 1
 3856  4553  4551 1
 3857  4554  4551 1
 3858  4555  4554 1
 3859  4557  4556 1
 3860  4558  4557 1
 3861  4559  4557 1
 3862  4560  4557 1
 3863  4561  4560 1
 3864  4563  4562 1
 3865  4564  4563 1
 3866  4565  4563 1
 3867  4566  4563 1
 3868  4567  4566 1
 3869  4569  4568 1
 3870  4570  4569 1
 3871  4571  4569 1
 3872  4572  4569 1
 3873  4573  4572 1
 3874  4575  4574 1
 3875  4576  4575 1
 3876  4577  4575 1
 3877  4578  4575 1
 3878  4579  4578 1
 3879  4581  4580 1
 3880  4582  4581 1
 3881  4583  4581 1
 3882  4584  4581 1
 3883  4585  4584 1
 3884  4587  4586 1
 3885  4588  4587 1
 3886  4589  4587 1
 3887  4590  4587 1
 3888  4591  4590 1
 3889  4593  4592 1
 3890  4594  4593 1
 3891  4595  4593 1
 3892  4596  4593 1
 3893  4597  4596 1
 3894  4599  4598 1
 3895  4600  4599 1
 3896  4601  4599 1
 3897  4602  4599 1
 3898  4603  4602 1
 3899  4605  4604 1
 3900  4606  4605 1
 3901  4607  4605 1
 3902  4608  4605 1
 3903  4609  4608 1
 3904  4611  4610 1
 3905  4612  4611 1
 3906  4613  4611 1
 3907  4614  4611 1
 3908  4615  4614 1
 3909  4617  4616 1
 3910  4618  4617 1
 3911  4619  4617 1
 3912  4620  4617 1
 3913  4621  4620 1
 3914  4623  4622 1
 3915  4624  4623 1
 3916  4625  4623 1
 3917  4626  4623 1
 3918  4627  4626 1
 3919  4629  4628 1
 3920  4630  4629 1
 3921  4631  4629 1
 3922  4632  4629 1
 3923  4633  4632 1
 3924  4635  4634 1
 3925  4636  4635 1
 3926  4637  4635 1
 3927  4638  4635 1
 3928  4639  4638 1
 3929  4641  4640 1
 3930  4642  4641 1
 3931  4643  4641 1
 3932  4644  4641 1
 3933  4645  4644 1
 3934  4647  4646 1
 3935  4648  4647 1
 3936  4649  4647 1
 3937  4650  4647 1
 3938  4651  4650 1
 3939  4653  4652 1
 3940  4654  4653 1
 3941  4655  4653 1
 3942  4656  4653 1
 3943  4657  4656 1
 3944  4659  4658 1
 3945  4660  4659 1
 3946  4661  4659 1
 3947  4662  4659 1
 3948  4663  4662 1
 3949  4665  4664 1
 3950  4666  4665 1
 3951  4667  4665 1
 3952  4668  4665 1
 3953  4669  4668 1
 3954  4671  4670 1
 3955  4672  4671 1
 3956  4673  4671 1
 3957  4674  4671 1
 3958  4675  4674 1
 3959  4677  4676 1
 3960  4678  4677 1
 3961  4679  4677 1
 3962  4680  4677 1
 3963  4681  4680 1
 3964  4683  4682 1
 3965  4684  4683 1
 3966  4685  4683 1
 3967  4686  4683 1
 3968  4687  4686 1
 3969  4689  4688 1
 3970  4690  4689 1
 3971  4691  4689 1
 3972  4692  4689 1
 3973  4693  4692 1
 3974  4695  4694 1
 3975  4696  4695 1
 3976  4697  4695 1
 3977  4698  4695 1
 3978  4699  4698 1
 3979  4701  4700 1
 3980  4702  4701 1
 3981  4703  4701 1
 3982  4704  4701 1
 3983  4705  4704 1
 3984  4707  4706 1
 3985  4708  4707 1
 3986  4709  4707 1
 3987  4710  4707 1
 3988  4711  4710 1
 3989  4713  4712 1
 3990  4714  4713 1
 3991  4715  4713 1
 3992  4716  4713 1
 3993  4717  4716 1
 3994  4719  4718 1
 3995  4720  4719 1
 3996  4721  4719 1
 3997  4722  4719 1
 3998  4723  4722 1
 3999  4725  4724 1
 4000  4726  4725 1
 4001  4727  4725 1
 4002  4728  4725 1
 4003  4729  4728 1
 4004  4731  4730 1
 4005  4732  4731 1
 4006  4733  4731 1
 4007  4734  4731 1
 4008  4735  4734 1
 4009  4737  4736 1
 4010  4738  4737 1
 4011  4739  4737 1
 4012  4740  4737 1
 4013  4741  4740 1
 4014  4743  4742 1
 4015  4744  4743 1
 4016  4745  4743 1
 4017  4746  4743 1
 4018  4747  4746 1
 4019  4749  4748 1
 4020  4750  4749 1
 4021  4751  4749 1
 4022  4752  4749 1
 4023  4753  4752 1
 4024  4755  4754 1
 4025  4756  4755 1
 4026  4757  4755 1
 4027  4758  4755 1
 4028  4759  4758 1
 4029  4761  4760 1
 4030  4762  4761 1
 4031  4763  4761 1
 4032  4764  4761 1
 4033  4765  4764 1
 4034  4767  4766 1
 4035  4768  4767 1
 4036  4769  4767 1
 4037  4770  4767 1
 4038  4771  4770 1
 4039  4773  4772 1
 4040  4774  4773 1
 4041  4775  4773 1
 4042  4776  4773 1
 4043  4777  4776 1
 4044  4779  4778 1
 4045  4780  4779 1
 4046  4781  4779 1
 4047  4782  4779 1
 4048  4783  4782 1
 4049  4785  4784 1
 4050  4786  4785 1
 4051  4787  4785 1
 4052  4788  4785 1
 4053  4789  4788 1
 4054  4791  4790 1
 4055  4792  4791 1
 4056  4793  4791 1
 4057  4794  4791 1
 4058  4795  4794 1
 4059  4797  4796 1
 4060  4798  4797 1
 4061  4799  4797 1
 4062  4800  4797 1
 4063  4801  4800 1
 4064  4803  4802 1
 4065  4804  4803 1
 4066  4805  4803 1
 4067  4806  4803 1
 4068  4807  4806 1
 4069  4809  4808 1
 4070  4810  4809 1
 4071  4811  4809 1
 4072  4812  4809 1
 4073  4813  4812 1
 4074  4815  4814 1
 4075  4816  4815 1
 4076  4817  4815 1
 4077  4818  4815 1
 4078  4819  4818 1
 4079  4821  4820 1
 4080  4822  4821 1
 4081  4823  4821 1
 4082  4824  4821 1
 4083  4825  4824 1
 4084  4827  4826 1
 4085  4828  4827 1
 4086  4829  4827 1
 4087  4830  4827 1
 4088  4831  4830 1
 4089  4833  4832 1
 4090  4834  4833 1
 4091  4835  4833 1
 4092  4836  4833 1
 4093  4837  4836 1
 4094  4839  4838 1
 4095  4840  4839 1
 4096  4841  4839 1
 4097  4842  4839 1
 4098  4843  4842 1
 4099  4845  4844 1
 4100  4846  4845 1
 4101  4847  4845 1
 4102  4848  4845 1
 4103  4849  4848 1
 4104  4851  4850 1
 4105  4852  4851 1
 4106  4853  4851 1
 4107  4854  4851 1
 4108  4855  4854 1
 4109  4857  4856 1
 4110  4858  4857 1
 4111  4859  4857 1
 4112  4860  4857 1
 4113  4861  4860 1
 4114  4863  4862 1
 4115  4864  4863 1
 4116  4865  4863 1
 4117  4866  4863 1
 4118  4867  4866 1
 4119  4869  4868 1
 4120  4870  4869 1
 4121  4871  4869 1
 4122  4872  4869 1
 4123  4873  4872 1
 4124  4875  4874 1
 4125  4876  4875 1
 4126  4877  4875 1
 4127  4878  4875 1
 4128  4879  4878 1
 4129  4881  4880 1
 4130  4882  4881 1
 4131  4883  4881 1
 4132  4884  4881 1
 4133  4885  4884 1
 4134  4887  4886 1
 4135  4888  4887 1
 4136  4889  4887 1
 4137  4890  4887 1
 4138  4891  4890 1
 4139  4893  4892 1
 4140  4894  4893 1
 4141  4895  4893 1
 4142  4896  4893 1
 4143  4897  4896 1
 4144  4899  4898 1
 4145  4900  4899 1
 4146  4901  4899 1
 4147  4902  4899 1
 4148  4903  4902 1
 4149  4905  4904 1
 4150  4906  4905 1
 4151  4907  4905 1
 4152  4908  4905 1
 4153  4909  4908 1
 4154  4911  4910 1
 4155  4912  4911 1
 4156  4913  4911 1
 4157  4914  4911 1
 4158  4915  4914 1
 4159  4917  4916 1
 4160  4918  4917 1
 4161  4919  4917 1
 4162  4920  4917 1
 4163  4921  4920 1
 4164  4923  4922 1
 4165  4924  4923 1
 4166  4925  4923 1
 4167  4926  4923 1
 4168  4927  4926 1
 4169  4929  4928 1
 4170  4930  4929 1
 4171  4931  4929 1
 4172  4932  4929 1
 4173  4933  4932 1
 4174  4935  4934 1
 4175  4936  4935 1
 4176  4937  4935 1
 4177  4938  4935 1
 4178  4939  4938 1
 4179  4941  4940 1
 4180  4942  4941 1
 4181  4943  4941 1
 4182  4944  4941 1
 4183  4945  4944 1
 4184  4947  4946 1
 4185  4948  4947 1
 4186  4949  4947 1
 4187  4950  4947 1
 4188  4951  4950 1
 4189  4953  4952 1
 4190  4954  4953 1
 4191  4955  4953 1
 4192  4956  4953 1
 4193  4957  4956 1
 4194  4959  4958 1
 4195  4960  4959 1
 4196  4961  4959 1
 4197  4962  4959 1
 4198  4963  4962 1
 4199  4965  4964 1
 4200  4966  4965 1
 4201  4967  4965 1
 4202  4968  4965 1
 4203  4969  4968 1
 4204  4971  4970 1
 4205  4972  4971 1
 4206  4973  4971 1
 4207  4974  4971 1
 4208  4975  4974 1
 4209  4977  4976 1
 4210  4978  4977 1
 4211  4979  4977 1
 4212  4980  4977 1
 4213  4981  4980 1
 4214  4983  4982 1
 4215  4984  4983 1
 4216  4985  4983 1
 4217  4986  4983 1
 4218  4987  4986 1
 4219  4989  4988 1
 4220  4990  4989 1
 4221  4991  4989 1
 4222  4992  4989 1
 4223  4993  4992 1
 4224  4995  4994 1
 4225  4996  4995 1
 4226  4997  4995 1
 4227  4998  4995 1
 4228  4999  4998 1
 4229  5001  5000 1
 4230  5002  5001 1
 4231  5003  5001 1
 4232  5004  5001 1
 4233  5005  5004 1
 4234  5007  5006 1
 4235  5008  5007 1
 4236  5009  5007 1
 4237  5010  5007 1
 4238  5011  5010 1
 4239  5013  5012 1
 4240  5014  5013 1
 4241  5015  5013 1
 4242  5016  5013 1
 4243  5017  5016 1
 4244  5019  5018 1
 4245  5020  5019 1
 4246  5021  5019 1
 4247  5022  5019 1
 4248  5023  5022 1
 4249  5025  5024 1
 4250  5026  5025 1
 4251  5027  5025 1
 4252  5028  5025 1
 4253  5029  5028 1
 4254  5031  5030 1
 4255  5032  5031 1
 4256  5033  5031 1
 4257  5034  5031 1
 4258  5035  5034 1
 4259  5037  5036 1
 4260  5038  5037 1
 4261  5039  5037 1
 4262  5040  5037 1
 4263  5041  5040 1
 4264  5043  5042 1
 4265  5044  5043 1
 4266  5045  5043 1
 4267  5046  5043 1
 4268  5047  5046 1
 4269  5049  5048 1
 4270  5050  5049 1
 4271  5051  5049 1
 4272  5052  5049 1
 4273  5053  5052 1
 4274  5055  5054 1
 4275  5056  5055 1
 4276  5057  5055 1
 4277  5058  5055 1
 4278  5059  5058 1
 4279  5061  5060 1
 4280  5062  5061 1
 4281  5063  5061 1
 4282  5064  5061 1
 4283  5065  5064 1
 4284  5067  5066 1
 4285  5068  5067 1
 4286  5069  5067 1
 4287  5070  5067 1
 4288  5071  5070 1
 4289  5073  5072 1
 4290  5074  5073 1
 4291  5075  5073 1
 4292  5076  5073 1
 4293  5077  5076 1
 4294  5079  5078 1
 4295  5080  5079 1
 4296  5081  5079 1
 4297  5082  5079 1
 4298  5083  5082 1
 4299  5085  5084 1
 4300  5086  5085 1
 4301  5087  5085 1
 4302  5088  5085 1
 4303  5089  5088 1
 4304  5091  5090 1
 4305  5092  5091 1
 4306  5093  5091 1
 4307  5094  5091 1
 4308  5095  5094 1
 4309  5097  5096 1
 4310  5098  5097 1
 4311  5099  5097 1
 4312  5100  5097 1
 4313  5101  5100 1
 4314  5103  5102 1
 4315  5104  5103 1
 4316  5105  5103 1
 4317  5106  5103 1
 4318  5107  5106 1
 4319  5109  5108 1
 4320  5110  5109 1
 4321  5111  5109 1
 4322  5112  5109 1
 4323  5113  5112 1
 4324  5115  5114 1
 4325  5116  5115 1
 4326  5117  5115 1
 4327  5118  5115 1
 4328  5119  5118 1
 4329  5121  5120 1
 4330  5122  5121 1
 4331  5123  5121 1
 4332  5124  5121 1
 4333  5125  5124 1
 4334  5127  5126 1
 4335  5128  5127 1
 4336  5129  5127 1
 4337  5130  5127 1
 4338  5131  5130 1
 4339  5133  5132 1
 4340  5134  5133 1
 4341  5135  5133 1
 4342  5136  5133 1
 4343  5137  5136 1
 4344  5139  5138 1
 4345  5140  5139 1
 4346  5141  5139 1
 4347  5142  5139 1
 4348  5143  5142 1
 4349  5145  5144 1
 4350  5146  5145 1
 4351  5147  5145 1
 4352  5148  5145 1
 4353  5149  5148 1
 4354  5151  5150 1
 4355  5152  5151 1
 4356  5153  5151 1
 4357  5154  5151 1
 4358  5155  5154 1
 4359  5157  5156 1
 4360  5158  5157 1
 4361  5159  5157 1
 4362  5160  5157 1
 4363  5161  5160 1
 4364  5163  5162 1
 4365  5164  5163 1
 4366  5165  5163 1
 4367  5166  5163 1
 4368  5167  5166 1
 4369  5169  5168 1
 4370  5170  5169 1
 4371  5171  5169 1
 4372  5172  5169 1
 4373  5173  5172 1
 4374  5175  5174 1
 4375  5176  5175 1
 4376  5177  5175 1
 4377  5178  5175 1
 4378  5179  5178 1
 4379  5181  5180 1
 4380  5182  5181 1
 4381  5183  5181 1
 4382  5184  5181 1
 4383  5185  5184 1
 4384  5187  5186 1
 4385  5188  5187 1
 4386  5189  5187 1
 4387  5190  5187 1
 4388  5191  5190 1
 4389  5193  5192 1
 4390  5194  5193 1
 4391  5195  5193 1
 4392  5196  5193 1
 4393  5197  5196 1
 4394  5199  5198 1
 4395  5200  5199 1
 4396  5201  5199 1
 4397  5202  5199 1
 4398  5203  5202 1
 4399  5205  5204 1
 4400  5206  5205 1
 4401  5207  5205 1
 4402  5208  5205 1
 4403  5209  5208 1
 4404  5211  5210 1
 4405  5212  5211 1
 4406  5213  5211 1
 4407  5214  5211 1
 4408  5215  5214 1
 4409  5217  5216 1
 4410  5218  5217 1
 4411  5219  5217 1
 4412  5220  5217 1
 4413  5221  5220 1
 4414  5223  5222 1
 4415  5224  5223 1
 4416  5225  5223 1
 4417  5226  5223 1
 4418  5227  5226 1
 4419  5229  5228 1
 4420  5230  5229 1
 4421  5231  5229 1
 4422  5232  5229 1
 4423  5233  5232 1
 4424  5235  5234 1
 4425  5236  5235 1
 4426  5237  5235 1
 4427  5238  5235 1
 4428  5239  5238 1
 4429  5241  5240 1
 4430  5242  5241 1
 4431  5243  5241 1
 4432  5244  5241 1
 4433  5245  5244 1
 4434  5247  5246 1
 4435  5248  5247 1
 4436  5249  5247 1
 4437  5250  5247 1
 4438  5251  5250 1
 4439  5253  5252 1
 4440  5254  5253 1
 4441  5255  5253 1
 4442  5256  5253 1
 4443  5257  5256 1
 4444  5259  5258 1
 4445  5260  5259 1
 4446  5261  5259 1
 4447  5262  5259 1
 4448  5263  5262 1
 4449  5265  5264 1
 4450  5266  5265 1
 4451  5267  5265 1
 4452  5268  5265 1
 4453  5269  5268 1
 4454  5271  5270 1
 4455  5272  5271 1
 4456  5273  5271 1
 4457  5274  5271 1
 4458  5275  5274 1
 4459  5277  5276 1
 4460  5278  5277 1
 4461  5279  5277 1
 4462  5280  5277 1
 4463  5281  5280 1
 4464  5283  5282 1
 4465  5284  5283 1
 4466  5285  5283 1
 4467  5286  5283 1
 4468  5287  5286 1
 4469  5289  5288 1
 4470  5290  5289 1
 4471  5291  5289 1
 4472  5292  5289 1
 4473  5293  5292 1
 4474  5295  5294 1
 4475  5296  5295 1
 4476  5297  5295 1
 4477  5298  5295 1
 4478  5299  5298 1
 4479  5301  5300 1
 4480  5302  5301 1
 4481  5303  5301 1
 4482  5304  5301 1
 4483  5305  5304 1
 4484  5307  5306 1
 4485  5308  5307 1
 4486  5309  5307 1
 4487  5310  5307 1
 4488  5311  5310 1
 4489  5313  5312 1
 4490  5314  5313 1
 4491  5315  5313 1
 4492  5316  5313 1
 4493  5317  5316 1
 4494  5319  5318 1
 4495  5320  5319 1
 4496  5321  5319 1
 4497  5322  5319 1
 4498  5323  5322 1
 4499  5325  5324 1
 4500  5326  5325 1
 4501  5327  5325 1
 4502  5328  5325 1
 4503  5329  5328 1
 4504  5331  5330 1
 4505  5332  5331 1
 4506  5333  5331 1
 4507  5334  5331 1
 4508  5335  5334 1
 4509  5337  5336 1
 4510  5338  5337 1
 4511  5339  5337 1
 4512  5340  5337 1
 4513  5341  5340 1
 4514  5343  5342 1
 4515  5344  5343 1
 4516  5345  5343 1
 4517  5346  5343 1
 4518  5347  5346 1
 4519  5349  5348 1
 4520  5350  5349 1
 4521  5351  5349 1
 4522  5352  5349 1
 4523  5353  5352 1
 4524  5355  5354 1
 4525  5356  5355 1
 4526  5357  5355 1
 4527  5358  5355 1
 4528  5359  5358 1
 4529  5361  5360 1
 4530  5362  5361 1
 4531  5363  5361 1
 4532  5364  5361 1
 4533  5365  5364 1
 4534  5367  5366 1
 4535  5368  5367 1
 4536  5369  5367 1
 4537  5370  5367 1
 4538  5371  5370 1
 4539  5373  5372 1
 4540  5374  5373 1
 4541  5375  5373 1
 4542  5376  5373 1
 4543  5377  5376 1
 4544  5379  5378 1
 4545  5380  5379 1
 4546  5381  5379 1
 4547  5382  5379 1
 4548  5383  5382 1
 4549  5385  5384 1
 4550  5386  5385 1
 4551  5387  5385 1
 4552  5388  5385 1
 4553  5389  5388 1
 4554  5391  5390 1
 4555  5392  5391 1
 4556  5393  5391 1
 4557  5394  5391 1
 4558  5395  5394 1
 4559  5397  5396 1
 4560  5398  5397 1
 4561  5399  5397 1
 4562  5400  5397 1
 4563  5401  5400 1
 4564  5403  5402 1
 4565  5404  5403 1
 4566  5405  5403 1
 4567  5406  5403 1
 4568  5407  5406 1
 4569  5409  5408 1
 4570  5410  5409 1
 4571  5411  5409 1
 4572  5412  5409 1
 4573  5413  5412 1
 4574  5415  5414 1
 4575  5416  5415 1
 4576  5417  5415 1
 4577  5418  5415 1
 4578  5419  5418 1
 4579  5421  5420 1
 4580  5422  5421 1
 4581  5423  5421 1
 4582  5424  5421 1
 4583  5425  5424 1
 4584  5427  5426 1
 4585  5428  5427 1
 4586  5429  5427 1
 4587  5430  5427 1
 4588  5431  5430 1
 4589  5433  5432 1
 4590  5434  5433 1
 4591  5435  5433 1
 4592  5436  5433 1
 4593  5437  5436 1
 4594  5439  5438 1
 4595  5440  5439 1
 4596  5441  5439 1
 4597  5442  5439 1
 4598  5443  5442 1
 4599  5445  5444 1
 4600  5446  5445 1
 4601  5447  5445 1
 4602  5448  5445 1
 4603  5449  5448 1
 4604  5451  5450 1
 4605  5452  5451 1
 4606  5453  5451 1
 4607  5454  5451 1
 4608  5455  5454 1
 4609  5457  5456 1
 4610  5458  5457 1
 4611  5459  5457 1
 4612  5460  5457 1
 4613  5461  5460 1
 4614  5463  5462 1
 4615  5464  5463 1
 4616  5465  5463 1
 4617  5466  5463 1
 4618  5467  5466 1
 4619  5469  5468 1
 4620  5470  5469 1
 4621  5471  5469 1
 4622  5472  5469 1
 4623  5473  5472 1
 4624  5475  5474 1
 4625  5476  5475 1
 4626  5477  5475 1
 4627  5478  5475 1
 4628  5479  5478 1
 4629  5481  5480 1
 4630  5482  5481 1
 4631  5483  5481 1
 4632  5484  5481 1
 4633  5485  5484 1
 4634  5487  5486 1
 4635  5488  5487 1
 4636  5489  5487 1
 4637  5490  5487 1
 4638  5491  5490 1
 4639  5493  5492 1
 4640  5494  5493 1
 4641  5495  5493 1
 4642  5496  5493 1
 4643  5497  5496 1
 4644  5499  5498 1
 4645  5500  5499 1
 4646  5501  5499 1
 4647  5502  5499 1
 4648  5503  5502 1
 4649  5505  5504 1
 4650  5506  5505 1
 4651  5507  5505 1
 4652  5508  5505 1
 4653  5509  5508 1
 4654  5511  5510 1
 4655  5512  5511 1
 4656  5513  5511 1
 4657  5514  5511 1
 4658  5515  5514 1
 4659  5517  5516 1
 4660  5518  5517 1
 4661  5519  5517 1
 4662  5520  5517 1
 4663  5521  5520 1
 4664  5523  5522 1
 4665  5524  5523 1
 4666  5525  5523 1
 4667  5526  5523 1
 4668  5527  5526 1
 4669  5529  5528 1
 4670  5530  5529 1
 4671  5531  5529 1
 4672  5532  5529 1
 4673  5533  5532 1
 4674  5535  5534 1
 4675  5536  5535 1
 4676  5537  5535 1
 4677  5538  5535 1
 4678  5539  5538 1
 4679  5541  5540 1
 4680  5542  5541 1
 4681  5543  5541 1
 4682  5544  5541 1
 4683  5545  5544 1
 4684  5547  5546 1
 4685  5548  5547 1
 4686  5549  5547 1
 4687  5550  5547 1
 4688  5551  5550 1
 4689  5553  5552 1
 4690  5554  5553 1
 4691  5555  5553 1
 4692  5556  5553 1
 4693  5557  5556 1
 4694  5559  5558 1
 4695  5560  5559 1
 4696  5561  5559 1
 4697  5562  5559 1
 4698  5563  5562 1
 4699  5565  5564 1
 4700  5566  5565 1
 4701  5567  5565 1
 4702  5568  5565 1
 4703  5569  5568 1
 4704  5571  5570 1
 4705  5572  5571 1
 4706  5573  5571 1
 4707  5574  5571 1
 4708  5575  5574 1
 4709  5577  5576 1
 4710  5578  5577 1
 4711  5579  5577 1
 4712  5580  5577 1
 4713  5581  5580 1
 4714  5583  5582 1
 4715  5584  5583 1
 4716  5585  5583 1
 4717  5586  5583 1
 4718  5587  5586 1
 4719  5589  5588 1
 4720  5590  5589 1
 4721  5591  5589 1
 4722  5592  5589 1
 4723  5593  5592 1
 4724  5595  5594 1
 4725  5596  5595 1
 4726  5597  5595 1
 4727  5598  5595 1
 4728  5599  5598 1
 4729  5601  5600 1
 4730  5602  5601 1
 4731  5603  5601 1
 4732  5604  5601 1
 4733  5605  5604 1
 4734  5607  5606 1
 4735  5608  5607 1
 4736  5609  5607 1
 4737  5610  5607 1
 4738  5611  5610 1
 4739  5613  5612 1
 4740  5614  5613 1
 4741  5615  5613 1
 4742  5616  5613 1
 4743  5617  5616 1
 4744  5619  5618 1
 4745  5620  5619 1
 4746  5621  5619 1
 4747  5622  5619 1
 4748  5623  5622 1
 4749  5625  5624 1
 4750  5626  5625 1
 4751  5627  5625 1
 4752  5628  5625 1
 4753  5629  5628 1
 4754  5631  5630 1
 4755  5632  5631 1
 4756  5633  5631 1
 4757  5634  5631 1
 4758  5635  5634 1
 4759  5637  5636 1
 4760  5638  5637 1
 4761  5639  5637 1
 4762  5640  5637 1
 4763  5641  5640 1
 4764  5643  5642 1
 4765  5644  5643 1
 4766  5645  5643 1
 4767  5646  5643 1
 4768  5647  5646 1
 4769  5649  5648 1
 4770  5650  5649 1
 4771  5651  5649 1
 4772  5652  5649 1
 4773  5653  5652 1
 4774  5655  5654 1
 4775  5656  5655 1
 4776  5657  5655 1
 4777  5658  5655 1
 4778  5659  5658 1
 4779  5661  5660 1
 4780  5662  5661 1
 4781  5663  5661 1
 4782  5664  5661 1
 4783  5665  5664 1
 4784  5667  5666 1
 4785  5668  5667 1
 4786  5669  5667 1
 4787  5670  5667 1
 4788  5671  5670 1
 4789  5673  5672 1
 4790  5674  5673 1
 4791  5675  5673 1
 4792  5676  5673 1
 4793  5677  5676 1
 4794  5679  5678 1
 4795  5680  5679 1
 4796  5681  5679 1
 4797  5682  5679 1
 4798  5683  5682 1
 4799  5685  5684 1
 4800  5686  5685 1
 4801  5687  5685 1
 4802  5688  5685 1
 4803  5689  5688 1
 4804  5691  5690 1
 4805  5692  5691 1
 4806  5693  5691 1
 4807  5694  5691 1
 4808  5695  5694 1
 4809  5697  5696 1
 4810  5698  5697 1
 4811  5699  5697 1
 4812  5700  5697 1
 4813  5701  5700 1
 4814  5703  5702 1
 4815  5704  5703 1
 4816  5705  5703 1
 4817  5706  5703 1
 4818  5707  5706 1
 4819  5709  5708 1
 4820  5710  5709 1
 4821  5711  5709 1
 4822  5712  5709 1
 4823  5713  5712 1
 4824  5715  5714 1
 4825  5716  5715 1
 4826  5717  5715 1
 4827  5718  5715 1
 4828  5719  5718 1
 4829  5721  5720 1
 4830  5722  5721 1
 4831  5723  5721 1
 4832  5724  5721 1
 4833  5725  5724 1
 4834  5727  5726 1
 4835  5728  5727 1
 4836  5729  5727 1
 4837  5730  5727 1
 4838  5731  5730 1
 4839  5733  5732 1
 4840  5734  5733 1
 4841  5735  5733 1
 4842  5736  5733 1
 4843  5737  5736 1
 4844  5739  5738 1
 4845  5740  5739 1
 4846  5741  5739 1
 4847  5742  5739 1
 4848  5743  5742 1
 4849  5745  5744 1
 4850  5746  5745 1
 4851  5747  5745 1
 4852  5748  5745 1
 4853  5749  5748 1
 4854  5751  5750 1
 4855  5752  5751 1
 4856  5753  5751 1
 4857  5754  5751 1
 4858  5755  5754 1
 4859  5757  5756 1
 4860  5758  5757 1
 4861  5759  5757 1
 4862  5760  5757 1
 4863  5761  5760 1
 4864  5763  5762 1
 4865  5764  5763 1
 4866  5765  5763 1
 4867  5766  5763 1
 4868  5767  5766 1
 4869  5769  5768 1
 4870  5770  5769 1
 4871  5771  5769 1
 4872  5772  5769 1
 4873  5773  5772 1
 4874  5775  5774 1
 4875  5776  5775 1
 4876  5777  5775 1
 4877  5778  5775 1
 4878  5779  5778 1
 4879  5781  5780 1
 4880  5782  5781 1
 4881  5783  5781 1
 4882  5784  5781 1
 4883  5785  5784 1
 4884  5787  5786 1
 4885  5788  5787 1
 4886  5789  5787 1
 4887  5790  5787 1
 4888  5791  5790 1
 4889  5793  5792 1
 4890  5794  5793 1
 4891  5795  5793 1
 4892  5796  5793 1
 4893  5797  5796 1
 4894  5799  5798 1
 4895  5800  5799 1
 4896  5801  5799 1
 4897  5802  5799 1
 4898  5803  5802 1
 4899  5805  5804 1
 4900  5806  5805 1
 4901  5807  5805 1
 4902  5808  5805 1
 4903  5809  5808 1
 4904  5811  5810 1
 4905  5812  5811 1
 4906  5813  5811 1
 4907  5814  5811 1
 4908  5815  5814 1
 4909  5817  5816 1
 4910  5818  5817 1
 4911  5819  5817 1
 4912  5820  5817 1
 4913  5821  5820 1
 4914  5823  5822 1
 4915  5824  5823 1
 4916  5825  5823 1
 4917  5826  5823 1
 4918  5827  5826 1
 4919  5829  5828 1
 4920  5830  5829 1
 4921  5831  5829 1
 4922  5832  5829 1
 4923  5833  5832 1
 4924  5835  5834 1
 4925  5836  5835 1
 4926  5837  5835 1
 4927  5838  5835 1
 4928  5839  5838 1
 4929  5841  5840 1
 4930  5842  5841 1
 4931  5843  5841 1
 4932  5844  5841 1
 4933  5845  5844 1
 4934  5847  5846 1
 4935  5848  5847 1
 4936  5849  5847 1
 4937  5850  5847 1
 4938  5851  5850 1
 4939  5853  5852 1
 4940  5854  5853 1
 4941  5855  5853 1
 4942  5856  5853 1
 4943  5857  5856 1
 4944  5859  5858 1
 4945  5860  5859 1
 4946  5861  5859 1
 4947  5862  5859 1
 4948  5863  5862 1
 4949  5865  5864 1
 4950  5866  5865 1
 4951  5867  5865 1
 4952  5868  5865 1
 4953  5869  5868 1
 4954  5871  5870 1
 4955  5872  5871 1
 4956  5873  5871 1
 4957  5874  5871 1
 4958  5875  5874 1
 4959  5877  5876 1
 4960  5878  5877 1
 4961  5879  5877 1
 4962  5880  5877 1
 4963  5881  5880 1
 4964  5883  5882 1
 4965  5884  5883 1
 4966  5885  5883 1
 4967  5886  5883 1
 4968  5887  5886 1
 4969  5889  5888 1
 4970  5890  5889 1
 4971  5891  5889 1
 4972  5892  5889 1
 4973  5893  5892 1
 4974  5895  5894 1
 4975  5896  5895 1
 4976  5897  5895 1
 4977  5898  5895 1
 4978  5899  5898 1
 4979  5901  5900 1
 4980  5902  5901 1
 4981  5903  5901 1
 4982  5904  5901 1
 4983  5905  5904 1
 4984  5907  5906 1
 4985  5908  5907 1
 4986  5909  5907 1
 4987  5910  5907 1
 4988  5911  5910 1
 4989  5913  5912 1
 4990  5914  5913 1
 4991  5915  5913 1
 4992  5916  5913 1
 4993  5917  5916 1
 4994  5919  5918 1
 4995  5920  5919 1
 4996  5921  5919 1
 4997  5922  5919 1
 4998  5923  5922 1
 4999  5925  5924 1
 5000  5926  5925 1
 5001  5927  5925 1
 5002  5928  5925 1
 5003  5929  5928 1
 5004  5931  5930 1
 5005  5932  5931 1
 5006  5933  5931 1
 5007  5934  5931 1
 5008  5935  5934 1
 5009  5937  5936 1
 5010  5938  5937 1
 5011  5939  5937 1
 5012  5940  5937 1
 5013  5941  5940 1
 5014  5943  5942 1
 5015  5944  5943 1
 5016  5945  5943 1
 5017  5946  5943 1
 5018  5947  5946 1
 5019  5949  5948 1
 5020  5950  5949 1
 5021  5951  5949 1
 5022  5952  5949 1
 5023  5953  5952 1
 5024  5955  5954 1
 5025  5956  5955 1
 5026  5957  5955 1
 5027  5958  5955 1
 5028  5959  5958 1
 5029  5961  5960 1
 5030  5962  5961 1
 5031  5963  5961 1
 5032  5964  5961 1
 5033  5965  5964 1
 5034  5967  5966 1
 5035  5968  5967 1
 5036  5969  5967 1
 5037  5970  5967 1
 5038  5971  5970 1
 5039  5973  5972 1
 5040  5974  5973 1
 5041  5975  5973 1
 5042  5976  5973 1
 5043  5977  5976 1
 5044  5979  5978 1
 5045  5980  5979 1
 5046  5981  5979 1
 5047  5982  5979 1
 5048  5983  5982 1
 5049  5985  5984 1
 5050  5986  5985 1
 5051  5987  5985 1
 5052  5988  5985 1
 5053  5989  5988 1
 5054  5991  5990 1
 5055  5992  5991 1
 5056  5993  5991 1
 5057  5994  5991 1
 5058  5995  5994 1
 5059  5997  5996 1
 5060  5998  5997 1
 5061  5999  5997 1
 5062  6000  5997 1
 5063  6001  6000 1
 5064  6003  6002 1
 5065  6004  6003 1
 5066  6005  6003 1
 5067  6006  6003 1
 5068  6007  6006 1
 5069  6009  6008 1
 5070  6010  6009 1
 5071  6011  6009 1
 5072  6012  6009 1
 5073  6013  6012 1
 5074  6015  6014 1
 5075  6016  6015 1
 5076  6017  6015 1
 5077  6018  6015 1
 5078  6019  6018 1
 5079  6021  6020 1
 5080  6022  6021 1
 5081  6023  6021 1
 5082  6024  6021 1
 5083  6025  6024 1
 5084  6027  6026 1
 5085  6028  6027 1
 5086  6029  6027 1
 5087  6030  6027 1
 5088  6031  6030 1
 5089  6033  6032 1
 5090  6034  6033 1
 5091  6035  6033 1
 5092  6036  6033 1
 5093  6037  6036 1
 5094  6039  6038 1
 5095  6040  6039 1
 5096  6041  6039 1
 5097  6042  6039 1
 5098  6043  6042 1
 5099  6045  6044 1
 5100  6046  6045 1
 5101  6047  6045 1
 5102  6048  6045 1
 5103  6049  6048 1
 5104  6051  6050 1
 5105  6052  6051 1
 5106  6053  6051 1
 5107  6054  6051 1
 5108  6055  6054 1
 5109  6057  6056 1
 5110  6058  6057 1
 5111  6059  6057 1
 5112  6060  6057 1
 5113  6061  6060 1
 5114  6063  6062 1
 5115  6064  6063 1
 5116  6065  6063 1
 5117  6066  6063 1
 5118  6067  6066 1
 5119  6069  6068 1
 5120  6070  6069 1
 5121  6071  6069 1
 5122  6072  6069 1
 5123  6073  6072 1
 5124  6075  6074 1
 5125  6076  6075 1
 5126  6077  6075 1
 5127  6078  6075 1
 5128  6079  6078 1
 5129  6081  6080 1
 5130  6082  6081 1
 5131  6083  6081 1
 5132  6084  6081 1
 5133  6085  6084 1
 5134  6087  6086 1
 5135  6088  6087 1
 5136  6089  6087 1
 5137  6090  6087 1
 5138  6091  6090 1
 5139  6093  6092 1
 5140  6094  6093 1
 5141  6095  6093 1
 5142  6096  6093 1
 5143  6097  6096 1
 5144  6099  6098 1
 5145  6100  6099 1
 5146  6101  6099 1
 5147  6102  6099 1
 5148  6103  6102 1
 5149  6105  6104 1
 5150  6106  6105 1
 5151  6107  6105 1
 5152  6108  6105 1
 5153  6109  6108 1
 5154  6111  6110 1
 5155  6112  6111 1
 5156  6113  6111 1
 5157  6114  6111 1
 5158  6115  6114 1
 5159  6117  6116 1
 5160  6118  6117 1
 5161  6119  6117 1
 5162  6120  6117 1
 5163  6121  6120 1
 5164  6123  6122 1
 5165  6124  6123 1
 5166  6125  6123 1
 5167  6126  6123 1
 5168  6127  6126 1
 5169  6129  6128 1
 5170  6130  6129 1
 5171  6131  6129 1
 5172  6132  6129 1
 5173  6133  6132 1
 5174  6135  6134 1
 5175  6136  6135 1
 5176  6137  6135 1
 5177  6138  6135 1
 5178  6139  6138 1
 5179  6141  6140 1
 5180  6142  6141 1
 5181  6143  6141 1
 5182  6144  6141 1
 5183  6145  6144 1
 5184  6147  6146 1
 5185  6148  6147 1
 5186  6149  6147 1
 5187  6150  6147 1
 5188  6151  6150 1
 5189  6153  6152 1
 5190  6154  6153 1
 5191  6155  6153 1
 5192  6156  6153 1
 5193  6157  6156 1
 5194  6159  6158 1
 5195  6160  6159 1
 5196  6161  6159 1
 5197  6162  6159 1
 5198  6163  6162 1
 5199  6165  6164 1
 5200  6166  6165 1
 5201  6167  6165 1
 5202  6168  6165 1
 5203  6169  6168 1
 5204  6171  6170 1
 5205  6172  6171 1
 5206  6173  6171 1
 5207  6174  6171 1
 5208  6175  6174 1
 5209  6177  6176 1
 5210  6178  6177 1
 5211  6179  6177 1
 5212  6180  6177 1
 5213  6181  6180 1
 5214  6183  6182 1
 5215  6184  6183 1
 5216  6185  6183 1
 5217  6186  6183 1
 5218  6187  6186 1
 5219  6189  6188 1
 5220  6190  6189 1
 5221  6191  6189 1
 5222  6192  6189 1
 5223  6193  6192 1
 5224  6195  6194 1
 5225  6196  6195 1
 5226  6197  6195 1
 5227  6198  6195 1
 5228  6199  6198 1
 5229  6201  6200 1
 5230  6202  6201 1
 5231  6203  6201 1
 5232  6204  6201 1
 5233  6205  6204 1
 5234  6207  6206 1
 5235  6208  6207 1
 5236  6209  6207 1
 5237  6210  6207 1
 5238  6211  6210 1
 5239  6213  6212 1
 5240  6214  6213 1
 5241  6215  6213 1
 5242  6216  6213 1
 5243  6217  6216 1
 5244  6219  6218 1
 5245  6220  6219 1
 5246  6221  6219 1
 5247  6222  6219 1
 5248  6223  6222 1
 5249  6225  6224 1
 5250  6226  6225 1
 5251  6227  6225 1
 5252  6228  6225 1
 5253  6229  6228 1
 5254  6231  6230 1
 5255  6232  6231 1
 5256  6233  6231 1
 5257  6234  6231 1
 5258  6235  6234 1
 5259  6237  6236 1
 5260  6238  6237 1
 5261  6239  6237 1
 5262  6240  6237 1
 5263  6241  6240 1
 5264  6243  6242 1
 5265  6244  6243 1
 5266  6245  6243 1
 5267  6246  6243 1
 5268  6247  6246 1
 5269  6249  6248 1
 5270  6250  6249 1
 5271  6251  6249 1
 5272  6252  6249 1
 5273  6253  6252 1
 5274  6255  6254 1
 5275  6256  6255 1
 5276  6257  6255 1
 5277  6258  6255 1
 5278  6259  6258 1
 5279  6261  6260 1
 5280  6262  6261 1
 5281  6263  6261 1
 5282  6264  6261 1
 5283  6265  6264 1
 5284  6267  6266 1
 5285  6268  6267 1
 5286  6269  6267 1
 5287  6270  6267 1
 5288  6271  6270 1
 5289  6273  6272 1
 5290  6274  6273 1
 5291  6275  6273 1
 5292  6276  6273 1
 5293  6277  6276 1
 5294  6279  6278 1
 5295  6280  6279 1
 5296  6281  6279 1
 5297  6282  6279 1
 5298  6283  6282 1
 5299  6285  6284 1
 5300  6286  6285 1
 5301  6287  6285 1
 5302  6288  6285 1
 5303  6289  6288 1
 5304  6291  6290 1
 5305  6292  6291 1
 5306  6293  6291 1
 5307  6294  6291 1
 5308  6295  6294 1
 5309  6297  6296 1
 5310  6298  6297 1
 5311  6299  6297 1
 5312  6300  6297 1
 5313  6301  6300 1
 5314  6303  6302 1
 5315  6304  6303 1
 5316  6305  6303 1
 5317  6306  6303 1
 5318  6307  6306 1
 5319  6309  6308 1
 5320  6310  6309 1
 5321  6311  6309 1
 5322  6312  6309 1
 5323  6313  6312 1
 5324  6315  6314 1
 5325  6316  6315 1
 5326  6317  6315 1
 5327  6318  6315 1
 5328  6319  6318 1
 5329  6321  6320 1
 5330  6322  6321 1
 5331  6323  6321 1
 5332  6324  6321 1
 5333  6325  6324 1
 5334  6327  6326 1
 5335  6328  6327 1
 5336  6329  6327 1
 5337  6330  6327 1
 5338  6331  6330 1
 5339  6333  6332 1
 5340  6334  6333 1
 5341  6335  6333 1
 5342  6336  6333 1
 5343  6337  6336 1
 5344  6339  6338 1
 5345  6340  6339 1
 5346  6341  6339 1
 5347  6342  6339 1
 5348  6343  6342 1
 5349  6345  6344 1
 5350  6346  6345 1
 5351  6347  6345 1
 5352  6348  6345 1
 5353  6349  6348 1
 5354  6351  6350 1
 5355  6352  6351 1
 5356  6353  6351 1
 5357  6354  6351 1
 5358  6355  6354 1
 5359  6357  6356 1
 5360  6358  6357 1
 5361  6359  6357 1
 5362  6360  6357 1
 5363  6361  6360 1
 5364  6363  6362 1
 5365  6364  6363 1
 5366  6365  6363 1
 5367  6366  6363 1
 5368  6367  6366 1
 5369  6369  6368 1
 5370  6370  6369 1
 5371  6371  6369 1
 5372  6372  6369 1
 5373  6373  6372 1
 5374  6375  6374 1
 5375  6376  6375 1
 5376  6377  6375 1
 5377  6378  6375 1
 5378  6379  6378 1
 5379  6381  6380 1
 5380  6382  6381 1
 5381  6383  6381 1
 5382  6384  6381 1
 5383  6385  6384 1
 5384  6387  6386 1
 5385  6388  6387 1
 5386  6389  6387 1
 5387  6390  6387 1
 5388  6391  6390 1
 5389  6393  6392 1
 5390  6394  6393 1
 5391  6395  6393 1
 5392  6396  6393 1
 5393  6397  6396 1
 5394  6399  6398 1
 5395  6400  6399 1
 5396  6401  6399 1
 5397  6402  6399 1
 5398  6403  6402 1
 5399  6405  6404 1
 5400  6406  6405 1
 5401  6407  6405 1
 5402  6408  6405 1
 5403  6409  6408 1
 5404  6411  6410 1
 5405  6412  6411 1
 5406  6413  6411 1
 5407  6414  6411 1
 5408  6415  6414 1
 5409  6417  6416 1
 5410  6418  6417 1
 5411  6419  6417 1
 5412  6420  6417 1
 5413  6421  6420 1
 5414  6423  6422 1
 5415  6424  6423 1
 5416  6425  6423 1
 5417  6426  6423 1
 5418  6427  6426 1
 5419  6429  6428 1
 5420  6430  6429 1
 5421  6431  6429 1
 5422  6432  6429 1
 5423  6433  6432 1
 5424  6435  6434 1
 5425  6436  6435 1
 5426  6437  6435 1
 5427  6438  6435 1
 5428  6439  6438 1
 5429  6441  6440 1
 5430  6442  6441 1
 5431  6443  6441 1
 5432  6444  6441 1
 5433  6445  6444 1
 5434  6447  6446 1
 5435  6448  6447 1
 5436  6449  6447 1
 5437  6450  6447 1
 5438  6451  6450 1
 5439  6453  6452 1
 5440  6454  6453 1
 5441  6455  6453 1
 5442  6456  6453 1
 5443  6457  6456 1
 5444  6459  6458 1
 5445  6460  6459 1
 5446  6461  6459 1
 5447  6462  6459 1
 5448  6463  6462 1
 5449  6465  6464 1
 5450  6466  6465 1
 5451  6467  6465 1
 5452  6468  6465 1
 5453  6469  6468 1
 5454  6471  6470 1
 5455  6472  6471 1
 5456  6473  6471 1
 5457  6474  6471 1
 5458  6475  6474 1
 5459  6477  6476 1
 5460  6478  6477 1
 5461  6479  6477 1
 5462  6480  6477 1
 5463  6481  6480 1
 5464  6483  6482 1
 5465  6484  6483 1
 5466  6485  6483 1
 5467  6486  6483 1
 5468  6487  6486 1
 5469  6489  6488 1
 5470  6490  6489 1
 5471  6491  6489 1
 5472  6492  6489 1
 5473  6493  6492 1
 5474  6495  6494 1
 5475  6496  6495 1
 5476  6497  6495 1
 5477  6498  6495 1
 5478  6499  6498 1
 5479  6501  6500 1
 5480  6502  6501 1
 5481  6503  6501 1
 5482  6504  6501 1
 5483  6505  6504 1
 5484  6507  6506 1
 5485  6508  6507 1
 5486  6509  6507 1
 5487  6510  6507 1
 5488  6511  6510 1
 5489  6513  6512 1
 5490  6514  6513 1
 5491  6515  6513 1
 5492  6516  6513 1
 5493  6517  6516 1
 5494  6519  6518 1
 5495  6520  6519 1
 5496  6521  6519 1
 5497  6522  6519 1
 5498  6523  6522 1
 5499  6525  6524 1
 5500  6526  6525 1
 5501  6527  6525 1
 5502  6528  6525 1
 5503  6529  6528 1
 5504  6531  6530 1
 5505  6532  6531 1
 5506  6533  6531 1
 5507  6534  6531 1
 5508  6535  6534 1
 5509  6537  6536 1
 5510  6538  6537 1
 5511  6539  6537 1
 5512  6540  6537 1
 5513  6541  6540 1
 5514  6543  6542 1
 5515  6544  6543 1
 5516  6545  6543 1
 5517  6546  6543 1
 5518  6547  6546 1
 5519  6549  6548 1
 5520  6550  6549 1
 5521  6551  6549 1
 5522  6552  6549 1
 5523  6553  6552 1
 5524  6555  6554 1
 5525  6556  6555 1
 5526  6557  6555 1
 5527  6558  6555 1
 5528  6559  6558 1
 5529  6561  6560 1
 5530  6562  6561 1
 5531  6563  6561 1
 5532  6564  6561 1
 5533  6565  6564 1
 5534  6567  6566 1
 5535  6568  6567 1
 5536  6569  6567 1
 5537  6570  6567 1
 5538  6571  6570 1
 5539  6573  6572 1
 5540  6574  6573 1
 5541  6575  6573 1
 5542  6576  6573 1
 5543  6577  6576 1
 5544  6579  6578 1
 5545  6580  6579 1
 5546  6581  6579 1
 5547  6582  6579 1
 5548  6583  6582 1
 5549  6585  6584 1
 5550  6586  6585 1
 5551  6587  6585 1
 5552  6588  6585 1
 5553  6589  6588 1
 5554  6591  6590 1
 5555  6592  6591 1
 5556  6593  6591 1
 5557  6594  6591 1
 5558  6595  6594 1
 5559  6597  6596 1
 5560  6598  6597 1
 5561  6599  6597 1
 5562  6600  6597 1
 5563  6601  6600 1
 5564  6603  6602 1
 5565  6604  6603 1
 5566  6605  6603 1
 5567  6606  6603 1
 5568  6607  6606 1
 5569  6609  6608 1
 5570  6610  6609 1
 5571  6611  6609 1
 5572  6612  6609 1
 5573  6613  6612 1
 5574  6615  6614 1
 5575  6616  6615 1
 5576  6617  6615 1
 5577  6618  6615 1
 5578  6619  6618 1
 5579  6621  6620 1
 5580  6622  6621 1
 5581  6623  6621 1
 5582  6624  6621 1
 5583  6625  6624 1
 5584  6627  6626 1
 5585  6628  6627 1
 5586  6629  6627 1
 5587  6630  6627 1
 5588  6631  6630 1
 5589  6633  6632 1
 5590  6634  6633 1
 5591  6635  6633 1
 5592  6636  6633 1
 5593  6637  6636 1
 5594  6639  6638 1
 5595  6640  6639 1
 5596  6641  6639 1
 5597  6642  6639 1
 5598  6643  6642 1
 5599  6645  6644 1
 5600  6646  6645 1
 5601  6647  6645 1
 5602  6648  6645 1
 5603  6649  6648 1
 5604  6651  6650 1
 5605  6652  6651 1
 5606  6653  6651 1
 5607  6654  6651 1
 5608  6655  6654 1
 5609  6657  6656 1
 5610  6658  6657 1
 5611  6659  6657 1
 5612  6660  6657 1
 5613  6661  6660 1
 5614  6663  6662 1
 5615  6664  6663 1
 5616  6665  6663 1
 5617  6666  6663 1
 5618  6667  6666 1
 5619  6669  6668 1
 5620  6670  6669 1
 5621  6671  6669 1
 5622  6672  6669 1
 5623  6673  6672 1
 5624  6675  6674 1
 5625  6676  6675 1
 5626  6677  6675 1
 5627  6678  6675 1
 5628  6679  6678 1
 5629  6681  6680 1
 5630  6682  6681 1
 5631  6683  6681 1
 5632  6684  6681 1
 5633  6685  6684 1
 5634  6687  6686 1
 5635  6688  6687 1
 5636  6689  6687 1
 5637  6690  6687 1
 5638  6691  6690 1
 5639  6693  6692 1
 5640  6694  6693 1
 5641  6695  6693 1
 5642  6696  6693 1
 5643  6697  6696 1
 5644  6699  6698 1
 5645  6700  6699 1
 5646  6701  6699 1
 5647  6702  6699 1
 5648  6703  6702 1
 5649  6705  6704 1
 5650  6706  6705 1
 5651  6707  6705 1
 5652  6708  6705 1
 5653  6709  6708 1
 5654  6711  6710 1
 5655  6712  6711 1
 5656  6713  6711 1
 5657  6714  6711 1
 5658  6715  6714 1
 5659  6717  6716 1
 5660  6718  6717 1
 5661  6719  6717 1
 5662  6720  6717 1
 5663  6721  6720 1
 5664  6723  6722 1
 5665  6724  6723 1
 5666  6725  6723 1
 5667  6726  6723 1
 5668  6727  6726 1
 5669  6729  6728 1
 5670  6730  6729 1
 5671  6731  6729 1
 5672  6732  6729 1
 5673  6733  6732 1
 5674  6735  6734 1
 5675  6736  6735 1
 5676  6737  6735 1
 5677  6738  6735 1
 5678  6739  6738 1
 5679  6741  6740 1
 5680  6742  6741 1
 5681  6743  6741 1
 5682  6744  6741 1
 5683  6745  6744 1
 5684  6747  6746 1
 5685  6748  6747 1
 5686  6749  6747 1
 5687  6750  6747 1
 5688  6751  6750 1
 5689  6753  6752 1
 5690  6754  6753 1
 5691  6755  6753 1
 5692  6756  6753 1
 5693  6757  6756 1
 5694  6759  6758 1
 5695  6760  6759 1
 5696  6761  6759 1
 5697  6762  6759 1
 5698  6763  6762 1
 5699  6765  6764 1
 5700  6766  6765 1
 5701  6767  6765 1
 5702  6768  6765 1
 5703  6769  6768 1
 5704  6771  6770 1
 5705  6772  6771 1
 5706  6773  6771 1
 5707  6774  6771 1
 5708  6775  6774 1
 5709  6777  6776 1
 5710  6778  6777 1
 5711  6779  6777 1
 5712  6780  6777 1
 5713  6781  6780 1
 5714  6783  6782 1
 5715  6784  6783 1
 5716  6785  6783 1
 5717  6786  6783 1
 5718  6787  6786 1
 5719  6789  6788 1
 5720  6790  6789 1
 5721  6791  6789 1
 5722  6792  6789 1
 5723  6793  6792 1
 5724  6795  6794 1
 5725  6796  6795 1
 5726  6797  6795 1
 5727  6798  6795 1
 5728  6799  6798 1
 5729  6801  6800 1
 5730  6802  6801 1
 5731  6803  6801 1
 5732  6804  6801 1
 5733  6805  6804 1
 5734  6807  6806 1
 5735  6808  6807 1
 5736  6809  6807 1
 5737  6810  6807 1
 5738  6811  6810 1
 5739  6813  6812 1
 5740  6814  6813 1
 5741  6815  6813 1
 5742  6816  6813 1
 5743  6817  6816 1
 5744  6819  6818 1
 5745  6820  6819 1
 5746  6821  6819 1
 5747  6822  6819 1
 5748  6823  6822 1
 5749  6825  6824 1
 5750  6826  6825 1
 5751  6827  6825 1
 5752  6828  6825 1
 5753  6829  6828 1
 5754  6831  6830 1
 5755  6832  6831 1
 5756  6833  6831 1
 5757  6834  6831 1
 5758  6835  6834 1
 5759  6837  6836 1
 5760  6838  6837 1
 5761  6839  6837 1
 5762  6840  6837 1
 5763  6841  6840 1
 5764  6843  6842 1
 5765  6844  6843 1
 5766  6845  6843 1
 5767  6846  6843 1
 5768  6847  6846 1
 5769  6849  6848 1
 5770  6850  6849 1
 5771  6851  6849 1
 5772  6852  6849 1
 5773  6853  6852 1
 5774  6855  6854 1
 5775  6856  6855 1
 5776  6857  6855 1
 5777  6858  6855 1
 5778  6859  6858 1
 5779  6861  6860 1
 5780  6862  6861 1
 5781  6863  6861 1
 5782  6864  6861 1
 5783  6865  6864 1
 5784  6867  6866 1
 5785  6868  6867 1
 5786  6869  6867 1
 5787  6870  6867 1
 5788  6871  6870 1
 5789  6873  6872 1
 5790  6874  6873 1
 5791  6875  6873 1
 5792  6876  6873 1
 5793  6877  6876 1
 5794  6879  6878 1
 5795  6880  6879 1
 5796  6881  6879 1
 5797  6882  6879 1
 5798  6883  6882 1
 5799  6885  6884 1
 5800  6886  6885 1
 5801  6887  6885 1
 5802  6888  6885 1
 5803  6889  6888 1
 5804  6891  6890 1
 5805  6892  6891 1
 5806  6893  6891 1
 5807  6894  6891 1
 5808  6895  6894 1
 5809  6897  6896 1
 5810  6898  6897 1
 5811  6899  6897 1
 5812  6900  6897 1
 5813  6901  6900 1
 5814  6903  6902 1
 5815  6904  6903 1
 5816  6905  6903 1
 5817  6906  6903 1
 5818  6907  6906 1
 5819  6909  6908 1
 5820  6910  6909 1
 5821  6911  6909 1
 5822  6912  6909 1
 5823  6913  6912 1
 5824  6915  6914 1
 5825  6916  6915 1
 5826  6917  6915 1
 5827  6918  6915 1
 5828  6919  6918 1
 5829  6921  6920 1
 5830  6922  6921 1
 5831  6923  6921 1
 5832  6924  6921 1
 5833  6925  6924 1
 5834  6927  6926 1
 5835  6928  6927 1
 5836  6929  6927 1
 5837  6930  6927 1
 5838  6931  6930 1
 5839  6933  6932 1
 5840  6934  6933 1
 5841  6935  6933 1
 5842  6936  6933 1
 5843  6937  6936 1
 5844  6939  6938 1
 5845  6940  6939 1
 5846  6941  6939 1
 5847  6942  6939 1
 5848  6943  6942 1
 5849  6945  6944 1
 5850  6946  6945 1
 5851  6947  6945 1
 5852  6948  6945 1
 5853  6949  6948 1
 5854  6951  6950 1
 5855  6952  6951 1
 5856  6953  6951 1
 5857  6954  6951 1
 5858  6955  6954 1
 5859  6957  6956 1
 5860  6958  6957 1
 5861  6959  6957 1
 5862  6960  6957 1
 5863  6961  6960 1
 5864  6963  6962 1
 5865  6964  6963 1
 5866  6965  6963 1
 5867  6966  6963 1
 5868  6967  6966 1
 5869  6969  6968 1
 5870  6970  6969 1
 5871  6971  6969 1
 5872  6972  6969 1
 5873  6973  6972 1
 5874  6975  6974 1
 5875  6976  6975 1
 5876  6977  6975 1
 5877  6978  6975 1
 5878  6979  6978 1
 5879  6981  6980 1
 5880  6982  6981 1
 5881  6983  6981 1
 5882  6984  6981 1
 5883  6985  6984 1
 5884  6987  6986 1
 5885  6988  6987 1
 5886  6989  6987 1
 5887  6990  6987 1
 5888  6991  6990 1
 5889  6993  6992 1
 5890  6994  6993 1
 5891  6995  6993 1
 5892  6996  6993 1
 5893  6997  6996 1
 5894  6999  6998 1
 5895  7000  6999 1
 5896  7001  6999 1
 5897  7002  6999 1
 5898  7003  7002 1
 5899  7005  7004 1
 5900  7006  7005 1
 5901  7007  7005 1
 5902  7008  7005 1
 5903  7009  7008 1
 5904  7011  7010 1
 5905  7012  7011 1
 5906  7013  7011 1
 5907  7014  7011 1
 5908  7015  7014 1
 5909  7017  7016 1
 5910  7018  7017 1
 5911  7019  7017 1
 5912  7020  7017 1
 5913  7021  7020 1
 5914  7023  7022 1
 5915  7024  7023 1
 5916  7025  7023 1
 5917  7026  7023 1
 5918  7027  7026 1
 5919  7029  7028 1
 5920  7030  7029 1
 5921  7031  7029 1
 5922  7032  7029 1
 5923  7033  7032 1
 5924  7035  7034 1
 5925  7036  7035 1
 5926  7037  7035 1
 5927  7038  7035 1
 5928  7039  7038 1
 5929  7041  7040 1
 5930  7042  7041 1
 5931  7043  7041 1
 5932  7044  7041 1
 5933  7045  7044 1
 5934  7047  7046 1
 5935  7048  7047 1
 5936  7049  7047 1
 5937  7050  7047 1
 5938  7051  7050 1
 5939  7053  7052 1
 5940  7054  7053 1
 5941  7055  7053 1
 5942  7056  7053 1
 5943  7057  7056 1
 5944  7059  7058 1
 5945  7060  7059 1
 5946  7061  7059 1
 5947  7062  7059 1
 5948  7063  7062 1
 5949  7065  7064 1
 5950  7066  7065 1
 5951  7067  7065 1
 5952  7068  7065 1
 5953  7069  7068 1
 5954  7071  7070 1
 5955  7072  7071 1
 5956  7073  7071 1
 5957  7074  7071 1
 5958  7075  7074 1
 5959  7077  7076 1
 5960  7078  7077 1
 5961  7079  7077 1
 5962  7080  7077 1
 5963  7081  7080 1
 5964  7083  7082 1
 5965  7084  7083 1
 5966  7085  7083 1
 5967  7086  7083 1
 5968  7087  7086 1
 5969  7089  7088 1
 5970  7090  7089 1
 5971  7091  7089 1
 5972  7092  7089 1
 5973  7093  7092 1
 5974  7095  7094 1
 5975  7096  7095 1
 5976  7097  7095 1
 5977  7098  7095 1
 5978  7099  7098 1
 5979  7101  7100 1
 5980  7102  7101 1
 5981  7103  7101 1
 5982  7104  7101 1
 5983  7105  7104 1
 5984  7107  7106 1
 5985  7108  7107 1
 5986  7109  7107 1
 5987  7110  7107 1
 5988  7111  7110 1
 5989  7113  7112 1
 5990  7114  7113 1
 5991  7115  7113 1
 5992  7116  7113 1
 5993  7117  7116 1
 5994  7119  7118 1
 5995  7120  7119 1
 5996  7121  7119 1
 5997  7122  7119 1
 5998  7123  7122 1
 5999  7125  7124 1
 6000  7126  7125 1
 6001  7127  7125 1
 6002  7128  7125 1
 6003  7129  7128 1
 6004  7131  7130 1
 6005  7132  7131 1
 6006  7133  7131 1
 6007  7134  7131 1
 6008  7135  7134 1
 6009  7137  7136 1
 6010  7138  7137 1
 6011  7139  7137 1
 6012  7140  7137 1
 6013  7141  7140 1
 6014  7143  7142 1
 6015  7144  7143 1
 6016  7145  7143 1
 6017  7146  7143 1
 6018  7147  7146 1
 6019  7149  7148 1
 6020  7150  7149 1
 6021  7151  7149 1
 6022  7152  7149 1
 6023  7153  7152 1
 6024  7155  7154 1
 6025  7156  7155 1
 6026  7157  7155 1
 6027  7158  7155 1
 6028  7159  7158 1
 6029  7161  7160 1
 6030  7162  7161 1
 6031  7163  7161 1
 6032  7164  7161 1
 6033  7165  7164 1
 6034  7167  7166 1
 6035  7168  7167 1
 6036  7169  7167 1
 6037  7170  7167 1
 6038  7171  7170 1
 6039  7173  7172 1
 6040  7174  7173 1
 6041  7175  7173 1
 6042  7176  7173 1
 6043  7177  7176 1
 6044  7179  7178 1
 6045  7180  7179 1
 6046  7181  7179 1
 6047  7182  7179 1
 6048  7183  7182 1
 6049  7185  7184 1
 6050  7186  7185 1
 6051  7187  7185 1
 6052  7188  7185 1
 6053  7189  7188 1
 6054  7191  7190 1
 6055  7192  7191 1
 6056  7193  7191 1
 6057  7194  7191 1
 6058  7195  7194 1
 6059  7197  7196 1
 6060  7198  7197 1
 6061  7199  7197 1
 6062  7200  7197 1
 6063  7201  7200 1
 6064  7203  7202 1
 6065  7204  7203 1
 6066  7205  7203 1
 6067  7206  7203 1
 6068  7207  7206 1
 6069  7209  7208 1
 6070  7210  7209 1
 6071  7211  7209 1
 6072  7212  7209 1
 6073  7213  7212 1
 6074  7215  7214 1
 6075  7216  7215 1
 6076  7217  7215 1
 6077  7218  7215 1
 6078  7219  7218 1
 6079  7221  7220 1
 6080  7222  7221 1
 6081  7223  7221 1
 6082  7224  7221 1
 6083  7225  7224 1
 6084  7227  7226 1
 6085  7228  7227 1
 6086  7229  7227 1
 6087  7230  7227 1
 6088  7231  7230 1
 6089  7233  7232 1
 6090  7234  7233 1
 6091  7235  7233 1
 6092  7236  7233 1
 6093  7237  7236 1
 6094  7239  7238 1
 6095  7240  7239 1
 6096  7241  7239 1
 6097  7242  7239 1
 6098  7243  7242 1
 6099  7245  7244 1
 6100  7246  7245 1
 6101  7247  7245 1
 6102  7248  7245 1
 6103  7249  7248 1
 6104  7251  7250 1
 6105  7252  7251 1
 6106  7253  7251 1
 6107  7254  7251 1
 6108  7255  7254 1
 6109  7257  7256 1
 6110  7258  7257 1
 6111  7259  7257 1
 6112  7260  7257 1
 6113  7261  7260 1
 6114  7263  7262 1
 6115  7264  7263 1
 6116  7265  7263 1
 6117  7266  7263 1
 6118  7267  7266 1
 6119  7269  7268 1
 6120  7270  7269 1
 6121  7271  7269 1
 6122  7272  7269 1
 6123  7273  7272 1
 6124  7275  7274 1
 6125  7276  7275 1
 6126  7277  7275 1
 6127  7278  7275 1
 6128  7279  7278 1
 6129  7281  7280 1
 6130  7282  7281 1
 6131  7283  7281 1
 6132  7284  7281 1
 6133  7285  7284 1
 6134  7287  7286 1
 6135  7288  7287 1
 6136  7289  7287 1
 6137  7290  7287 1
 6138  7291  7290 1
 6139  7293  7292 1
 6140  7294  7293 1
 6141  7295  7293 1
 6142  7296  7293 1
 6143  7297  7296 1
 6144  7299  7298 1
 6145  7300  7299 1
 6146  7301  7299 1
 6147  7302  7299 1
 6148  7303  7302 1
 6149  7305  7304 1
 6150  7306  7305 1
 6151  7307  7305 1
 6152  7308  7305 1
 6153  7309  7308 1
 6154  7311  7310 1
 6155  7312  7311 1
 6156  7313  7311 1
 6157  7314  7311 1
 6158  7315  7314 1
 6159  7317  7316 1
 6160  7318  7317 1
 6161  7319  7317 1
 6162  7320  7317 1
 6163  7321  7320 1
 6164  7323  7322 1
 6165  7324  7323 1
 6166  7325  7323 1
 6167  7326  7323 1
 6168  7327  7326 1
 6169  7329  7328 1
 6170  7330  7329 1
 6171  7331  7329 1
 6172  7332  7329 1
 6173  7333  7332 1
 6174  7335  7334 1
 6175  7336  7335 1
 6176  7337  7335 1
 6177  7338  7335 1
 6178  7339  7338 1
 6179  7341  7340 1
 6180  7342  7341 1
 6181  7343  7341 1
 6182  7344  7341 1
 6183  7345  7344 1
 6184  7347  7346 1
 6185  7348  7347 1
 6186  7349  7347 1
 6187  7350  7347 1
 6188  7351  7350 1
 6189  7353  7352 1
 6190  7354  7353 1
 6191  7355  7353 1
 6192  7356  7353 1
 6193  7357  7356 1
 6194  7359  7358 1
 6195  7360  7359 1
 6196  7361  7359 1
 6197  7362  7359 1
 6198  7363  7362 1
 6199  7365  7364 1
 6200  7366  7365 1
 6201  7367  7365 1
 6202  7368  7365 1
 6203  7369  7368 1
 6204  7371  7370 1
 6205  7372  7371 1
 6206  7373  7371 1
 6207  7374  7371 1
 6208  7375  7374 1
 6209  7377  7376 1
 6210  7378  7377 1
 6211  7379  7377 1
 6212  7380  7377 1
 6213  7381  7380 1
 6214  7383  7382 1
 6215  7384  7383 1
 6216  7385  7383 1
 6217  7386  7383 1
 6218  7387  7386 1
 6219  7389  7388 1
 6220  7390  7389 1
 6221  7391  7389 1
 6222  7392  7389 1
 6223  7393  7392 1
 6224  7395  7394 1
 6225  7396  7395 1
 6226  7397  7395 1
 6227  7398  7395 1
 6228  7399  7398 1
 6229  7401  7400 1
 6230  7402  7401 1
 6231  7403  7401 1
 6232  7404  7401 1
 6233  7405  7404 1
 6234  7407  7406 1
 6235  7408  7407 1
 6236  7409  7407 1
 6237  7410  7407 1
 6238  7411  7410 1
 6239  7413  7412 1
 6240  7414  7413 1
 6241  7415  7413 1
 6242  7416  7413 1
 6243  7417  7416 1
 6244  7419  7418 1
 6245  7420  7419 1
 6246  7421  7419 1
 6247  7422  7419 1
 6248  7423  7422 1
 6249  7425  7424 1
 6250  7426  7425 1
 6251  7427  7425 1
 6252  7428  7425 1
 6253  7429  7428 1
 6254  7431  7430 1
 6255  7432  7431 1
 6256  7433  7431 1
 6257  7434  7431 1
 6258  7435  7434 1
 6259  7437  7436 1
 6260  7438  7437 1
 6261  7439  7437 1
 6262  7440  7437 1
 6263  7441  7440 1
 6264  7443  7442 1
 6265  7444  7443 1
 6266  7445  7443 1
 6267  7446  7443 1
 6268  7447  7446 1
 6269  7449  7448 1
 6270  7450  7449 1
 6271  7451  7449 1
 6272  7452  7449 1
 6273  7453  7452 1
 6274  7455  7454 1
 6275  7456  7455 1
 6276  7457  7455 1
 6277  7458  7455 1
 6278  7459  7458 1
 6279  7461  7460 1
 6280  7462  7461 1
 6281  7463  7461 1
 6282  7464  7461 1
 6283  7465  7464 1
 6284  7467  7466 1
 6285  7468  7467 1
 6286  7469  7467 1
 6287  7470  7467 1
 6288  7471  7470 1
 6289  7473  7472 1
 6290  7474  7473 1
 6291  7475  7473 1
 6292  7476  7473 1
 6293  7477  7476 1
 6294  7479  7478 1
 6295  7480  7479 1
 6296  7481  7479 1
 6297  7482  7479 1
 6298  7483  7482 1
 6299  7485  7484 1
 6300  7486  7485 1
 6301  7487  7485 1
 6302  7488  7485 1
 6303  7489  7488 1
 6304  7491  7490 1
 6305  7492  7491 1
 6306  7493  7491 1
 6307  7494  7491 1
 6308  7495  7494 1
 6309  7497  7496 1
 6310  7498  7497 1
 6311  7499  7497 1
 6312  7500  7497 1
 6313  7501  7500 1
 6314  7503  7502 1
 6315  7504  7503 1
 6316  7505  7503 1
 6317  7506  7503 1
 6318  7507  7506 1
 6319  7509  7508 1
 6320  7510  7509 1
 6321  7511  7509 1
 6322  7512  7509 1
 6323  7513  7512 1
 6324  7515  7514 1
 6325  7516  7515 1
 6326  7517  7515 1
 6327  7518  7515 1
 6328  7519  7518 1
 6329  7521  7520 1
 6330  7522  7521 1
 6331  7523  7521 1
 6332  7524  7521 1
 6333  7525  7524 1
 6334  7527  7526 1
 6335  7528  7527 1
 6336  7529  7527 1
 6337  7530  7527 1
 6338  7531  7530 1
 6339  7533  7532 1
 6340  7534  7533 1
 6341  7535  7533 1
 6342  7536  7533 1
 6343  7537  7536 1
 6344  7539  7538 1
 6345  7540  7539 1
 6346  7541  7539 1
 6347  7542  7539 1
 6348  7543  7542 1
 6349  7545  7544 1
 6350  7546  7545 1
 6351  7547  7545 1
 6352  7548  7545 1
 6353  7549  7548 1
 6354  7551  7550 1
 6355  7552  7551 1
 6356  7553  7551 1
 6357  7554  7551 1
 6358  7555  7554 1
 6359  7557  7556 1
 6360  7558  7557 1
 6361  7559  7557 1
 6362  7560  7557 1
 6363  7561  7560 1
 6364  7563  7562 1
 6365  7564  7563 1
 6366  7565  7563 1
 6367  7566  7563 1
 6368  7567  7566 1
 6369  7569  7568 1
 6370  7570  7569 1
 6371  7571  7569 1
 6372  7572  7569 1
 6373  7573  7572 1
 6374  7575  7574 1
 6375  7576  7575 1
 6376  7577  7575 1
 6377  7578  7575 1
 6378  7579  7578 1
 6379  7581  7580 1
 6380  7582  7581 1
 6381  7583  7581 1
 6382  7584  7581 1
 6383  7585  7584 1
 6384  7587  7586 1
 6385  7588  7587 1
 6386  7589  7587 1
 6387  7590  7587 1
 6388  7591  7590 1
 6389  7593  7592 1
 6390  7594  7593 1
 6391  7595  7593 1
 6392  7596  7593 1
 6393  7597  7596 1
 6394  7599  7598 1
 6395  7600  7599 1
 6396  7601  7599 1
 6397  7602  7599 1
 6398  7603  7602 1
 6399  7605  7604 1
 6400  7606  7605 1
 6401  7607  7605 1
 6402  7608  7605 1
 6403  7609  7608 1
 6404  7611  7610 1
 6405  7612  7611 1
 6406  7613  7611 1
 6407  7614  7611 1
 6408  7615  7614 1
 6409  7617  7616 1
 6410  7618  7617 1
 6411  7619  7617 1
 6412  7620  7617 1
 6413  7621  7620 1
 6414  7623  7622 1
 6415  7624  7623 1
 6416  7625  7623 1
 6417  7626  7623 1
 6418  7627  7626 1
 6419  7629  7628 1
 6420  7630  7629 1
 6421  7631  7629 1
 6422  7632  7629 1
 6423  7633  7632 1
 6424  7635  7634 1
 6425  7636  7635 1
 6426  7637  7635 1
 6427  7638  7635 1
 6428  7639  7638 1
 6429  7641  7640 1
 6430  7642  7641 1
 6431  7643  7641 1
 6432  7644  7641 1
 6433  7645  7644 1
 6434  7647  7646 1
 6435  7648  7647 1
 6436  7649  7647 1
 6437  7650  7647 1
 6438  7651  7650 1
 6439  7653  7652 1
 6440  7654  7653 1
 6441  7655  7653 1
 6442  7656  7653 1
 6443  7657  7656 1
 6444  7659  7658 1
 6445  7660  7659 1
 6446  7661  7659 1
 6447  7662  7659 1
 6448  7663  7662 1
 6449  7665  7664 1
 6450  7666  7665 1
 6451  7667  7665 1
 6452  7668  7665 1
 6453  7669  7668 1
 6454  7671  7670 1
 6455  7672  7671 1
 6456  7673  7671 1
 6457  7674  7671 1
 6458  7675  7674 1
 6459  7677  7676 1
 6460  7678  7677 1
 6461  7679  7677 1
 6462  7680  7677 1
 6463  7681  7680 1
 6464  7683  7682 1
 6465  7684  7683 1
 6466  7685  7683 1
 6467  7686  7683 1
 6468  7687  7686 1
 6469  7689  7688 1
 6470  7690  7689 1
 6471  7691  7689 1
 6472  7692  7689 1
 6473  7693  7692 1
 6474  7695  7694 1
 6475  7696  7695 1
 6476  7697  7695 1
 6477  7698  7695 1
 6478  7699  7698 1
 6479  7701  7700 1
 6480  7702  7701 1
 6481  7703  7701 1
 6482  7704  7701 1
 6483  7705  7704 1
 6484  7707  7706 1
 6485  7708  7707 1
 6486  7709  7707 1
 6487  7710  7707 1
 6488  7711  7710 1
 6489  7713  7712 1
 6490  7714  7713 1
 6491  7715  7713 1
 6492  7716  7713 1
 6493  7717  7716 1
 6494  7719  7718 1
 6495  7720  7719 1
 6496  7721  7719 1
 6497  7722  7719 1
 6498  7723  7722 1
 6499  7725  7724 1
 6500  7726  7725 1
 6501  7727  7725 1
 6502  7728  7725 1
 6503  7729  7728 1
 6504  7731  7730 1
 6505  7732  7731 1
 6506  7733  7731 1
 6507  7734  7731 1
 6508  7735  7734 1
 6509  7737  7736 1
 6510  7738  7737 1
 6511  7739  7737 1
 6512  7740  7737 1
 6513  7741  7740 1
 6514  7743  7742 1
 6515  7744  7743 1
 6516  7745  7743 1
 6517  7746  7743 1
 6518  7747  7746 1
 6519  7749  7748 1
 6520  7750  7749 1
 6521  7751  7749 1
 6522  7752  7749 1
 6523  7753  7752 1
 6524  7755  7754 1
 6525  7756  7755 1
 6526  7757  7755 1
 6527  7758  7755 1
 6528  7759  7758 1
 6529  7761  7760 1
 6530  7762  7761 1
 6531  7763  7761 1
 6532  7764  7761 1
 6533  7765  7764 1
 6534  7767  7766 1
 6535  7768  7767 1
 6536  7769  7767 1
 6537  7770  7767 1
 6538  7771  7770 1
 6539  7773  7772 1
 6540  7774  7773 1
 6541  7775  7773 1
 6542  7776  7773 1
 6543  7777  7776 1
 6544  7779  7778 1
 6545  7780  7779 1
 6546  7781  7779 1
 6547  7782  7779 1
 6548  7783  7782 1
 6549  7785  7784 1
 6550  7786  7785 1
 6551  7787  7785 1
 6552  7788  7785 1
 6553  7789  7788 1
 6554  7791  7790 1
 6555  7792  7791 1
 6556  7793  7791 1
 6557  7794  7791 1
 6558  7795  7794 1
 6559  7797  7796 1
 6560  7798  7797 1
 6561  7799  7797 1
 6562  7800  7797 1
 6563  7801  7800 1
 6564  7803  7802 1
 6565  7804  7803 1
 6566  7805  7803 1
 6567  7806  7803 1
 6568  7807  7806 1
 6569  7809  7808 1
 6570  7810  7809 1
 6571  7811  7809 1
 6572  7812  7809 1
 6573  7813  7812 1
 6574  7815  7814 1
 6575  7816  7815 1
 6576  7817  7815 1
 6577  7818  7815 1
 6578  7819  7818 1
 6579  7821  7820 1
 6580  7822  7821 1
 6581  7823  7821 1
 6582  7824  7821 1
 6583  7825  7824 1
 6584  7827  7826 1
 6585  7828  7827 1
 6586  7829  7827 1
 6587  7830  7827 1
 6588  7831  7830 1
 6589  7833  7832 1
 6590  7834  7833 1
 6591  7835  7833 1
 6592  7836  7833 1
 6593  7837  7836 1
 6594  7839  7838 1
 6595  7840  7839 1
 6596  7841  7839 1
 6597  7842  7839 1
 6598  7843  7842 1
 6599  7845  7844 1
 6600  7846  7845 1
 6601  7847  7845 1
 6602  7848  7845 1
 6603  7849  7848 1
 6604  7851  7850 1
 6605  7852  7851 1
 6606  7853  7851 1
 6607  7854  7851 1
 6608  7855  7854 1
 6609  7857  7856 1
 6610  7858  7857 1
 6611  7859  7857 1
 6612  7860  7857 1
 6613  7861  7860 1
 6614  7863  7862 1
 6615  7864  7863 1
 6616  7865  7863 1
 6617  7866  7863 1
 6618  7867  7866 1
 6619  7869  7868 1
 6620  7870  7869 1
 6621  7871  7869 1
 6622  7872  7869 1
 6623  7873  7872 1
 6624  7875  7874 1
 6625  7876  7875 1
 6626  7877  7875 1
 6627  7878  7875 1
 6628  7879  7878 1
 6629  7881  7880 1
 6630  7882  7881 1
 6631  7883  7881 1
 6632  7884  7881 1
 6633  7885  7884 1
 6634  7887  7886 1
 6635  7888  7887 1
 6636  7889  7887 1
 6637  7890  7887 1
 6638  7891  7890 1
 6639  7893  7892 1
 6640  7894  7893 1
 6641  7895  7893 1
 6642  7896  7893 1
 6643  7897  7896 1
 6644  7899  7898 1
 6645  7900  7899 1
 6646  7901  7899 1
 6647  7902  7899 1
 6648  7903  7902 1
 6649  7905  7904 1
 6650  7906  7905 1
 6651  7907  7905 1
 6652  7908  7905 1
 6653  7909  7908 1
 6654  7911  7910 1
 6655  7912  7911 1
 6656  7913  7911 1
 6657  7914  7911 1
 6658  7915  7914 1
 6659  7917  7916 1
 6660  7918  7917 1
 6661  7919  7917 1
 6662  7920  7917 1
 6663  7921  7920 1
 6664  7923  7922 1
 6665  7924  7923 1
 6666  7925  7923 1
 6667  7926  7923 1
 6668  7927  7926 1
 6669  7929  7928 1
 6670  7930  7929 1
 6671  7931  7929 1
 6672  7932  7929 1
 6673  7933  7932 1
 6674  7935  7934 1
 6675  7936  7935 1
 6676  7937  7935 1
 6677  7938  7935 1
 6678  7939  7938 1
 6679  7941  7940 1
 6680  7942  7941 1
 6681  7943  7941 1
 6682  7944  7941 1
 6683  7945  7944 1
 6684  7947  7946 1
 6685  7948  7947 1
 6686  7949  7947 1
 6687  7950  7947 1
 6688  7951  7950 1
 6689  7953  7952 1
 6690  7954  7953 1
 6691  7955  7953 1
 6692  7956  7953 1
 6693  7957  7956 1
 6694  7959  7958 1
 6695  7960  7959 1
 6696  7961  7959 1
 6697  7962  7959 1
 6698  7963  7962 1
 6699  7965  7964 1
 6700  7966  7965 1
 6701  7967  7965 1
 6702  7968  7965 1
 6703  7969  7968 1
 6704  7971  7970 1
 6705  7972  7971 1
 6706  7973  7971 1
 6707  7974  7971 1
 6708  7975  7974 1
 6709  7977  7976 1
 6710  7978  7977 1
 6711  7979  7977 1
 6712  7980  7977 1
 6713  7981  7980 1
 6714  7983  7982 1
 6715  7984  7983 1
 6716  7985  7983 1
 6717  7986  7983 1
 6718  7987  7986 1
 6719  7989  7988 1
 6720  7990  7989 1
 6721  7991  7989 1
 6722  7992  7989 1
 6723  7993  7992 1
 6724  7995  7994 1
 6725  7996  7995 1
 6726  7997  7995 1
 6727  7998  7995 1
 6728  7999  7998 1
 6729  8001  8000 1
 6730  8002  8001 1
 6731  8003  8001 1
 6732  8004  8001 1
 6733  8005  8004 1
 6734  8007  8006 1
 6735  8008  8007 1
 6736  8009  8007 1
 6737  8010  8007 1
 6738  8011  8010 1
 6739  8013  8012 1
 6740  8014  8013 1
 6741  8015  8013 1
 6742  8016  8013 1
 6743  8017  8016 1
 6744  8019  8018 1
 6745  8020  8019 1
 6746  8021  8019 1
 6747  8022  8019 1
 6748  8023  8022 1
 6749  8025  8024 1
 6750  8026  8025 1
 6751  8027  8025 1
 6752  8028  8025 1
 6753  8029  8028 1
 6754  8031  8030 1
 6755  8032  8031 1
 6756  8033  8031 1
 6757  8034  8031 1
 6758  8035  8034 1
 6759  8037  8036 1
 6760  8038  8037 1
 6761  8039  8037 1
 6762  8040  8037 1
 6763  8041  8040 1
 6764  8043  8042 1
 6765  8044  8043 1
 6766  8045  8043 1
 6767  8046  8043 1
 6768  8047  8046 1
 6769  8049  8048 1
 6770  8050  8049 1
 6771  8051  8049 1
 6772  8052  8049 1
 6773  8053  8052 1
 6774  8055  8054 1
 6775  8056  8055 1
 6776  8057  8055 1
 6777  8058  8055 1
 6778  8059  8058 1
 6779  8061  8060 1
 6780  8062  8061 1
 6781  8063  8061 1
 6782  8064  8061 1
 6783  8065  8064 1
 6784  8067  8066 1
 6785  8068  8067 1
 6786  8069  8067 1
 6787  8070  8067 1
 6788  8071  8070 1
 6789  8073  8072 1
 6790  8074  8073 1
 6791  8075  8073 1
 6792  8076  8073 1
 6793  8077  8076 1
 6794  8079  8078 1
 6795  8080  8079 1
 6796  8081  8079 1
 6797  8082  8079 1
 6798  8083  8082 1
 6799  8085  8084 1
 6800  8086  8085 1
 6801  8087  8085 1
 6802  8088  8085 1
 6803  8089  8088 1
 6804  8091  8090 1
 6805  8092  8091 1
 6806  8093  8091 1
 6807  8094  8091 1
 6808  8095  8094 1
 6809  8097  8096 1
 6810  8098  8097 1
 6811  8099  8097 1
 6812  8100  8097 1
 6813  8101  8100 1
 6814  8103  8102 1
 6815  8104  8103 1
 6816  8105  8103 1
 6817  8106  8103 1
 6818  8107  8106 1
 6819  8109  8108 1
 6820  8110  8109 1
 6821  8111  8109 1
 6822  8112  8109 1
 6823  8113  8112 1
 6824  8115  8114 1
 6825  8116  8115 1
 6826  8117  8115 1
 6827  8118  8115 1
 6828  8119  8118 1
 6829  8121  8120 1
 6830  8122  8121 1
 6831  8123  8121 1
 6832  8124  8121 1
 6833  8125  8124 1
 6834  8127  8126 1
 6835  8128  8127 1
 6836  8129  8127 1
 6837  8130  8127 1
 6838  8131  8130 1
 6839  8133  8132 1
 6840  8134  8133 1
 6841  8135  8133 1
 6842  8136  8133 1
 6843  8137  8136 1
 6844  8139  8138 1
 6845  8140  8139 1
 6846  8141  8139 1
 6847  8142  8139 1
 6848  8143  8142 1
 6849  8145  8144 1
 6850  8146  8145 1
 6851  8147  8145 1
 6852  8148  8145 1
 6853  8149  8148 1
 6854  8151  8150 1
 6855  8152  8151 1
 6856  8153  8151 1
 6857  8154  8151 1
 6858  8155  8154 1
 6859  8157  8156 1
 6860  8158  8157 1
 6861  8159  8157 1
 6862  8160  8157 1
 6863  8161  8160 1
 6864  8163  8162 1
 6865  8164  8163 1
 6866  8165  8163 1
 6867  8166  8163 1
 6868  8167  8166 1
 6869  8169  8168 1
 6870  8170  8169 1
 6871  8171  8169 1
 6872  8172  8169 1
 6873  8173  8172 1
 6874  8175  8174 1
 6875  8176  8175 1
 6876  8177  8175 1
 6877  8178  8175 1
 6878  8179  8178 1
 6879  8181  8180 1
 6880  8182  8181 1
 6881  8183  8181 1
 6882  8184  8181 1
 6883  8185  8184 1
 6884  8187  8186 1
 6885  8188  8187 1
 6886  8189  8187 1
 6887  8190  8187 1
 6888  8191  8190 1
 6889  8193  8192 1
 6890  8194  8193 1
 6891  8195  8193 1
 6892  8196  8193 1
 6893  8197  8196 1
 6894  8199  8198 1
 6895  8200  8199 1
 6896  8201  8199 1
 6897  8202  8199 1
 6898  8203  8202 1
 6899  8205  8204 1
 6900  8206  8205 1
 6901  8207  8205 1
 6902  8208  8205 1
 6903  8209  8208 1
 6904  8211  8210 1
 6905  8212  8211 1
 6906  8213  8211 1
 6907  8214  8211 1
 6908  8215  8214 1
 6909  8217  8216 1
 6910  8218  8217 1
 6911  8219  8217 1
 6912  8220  8217 1
 6913  8221  8220 1
 6914  8223  8222 1
 6915  8224  8223 1
 6916  8225  8223 1
 6917  8226  8223 1
 6918  8227  8226 1
 6919  8229  8228 1
 6920  8230  8229 1
 6921  8231  8229 1
 6922  8232  8229 1
 6923  8233  8232 1
 6924  8235  8234 1
 6925  8236  8235 1
 6926  8237  8235 1
 6927  8238  8235 1
 6928  8239  8238 1
 6929  8241  8240 1
 6930  8242  8241 1
 6931  8243  8241 1
 6932  8244  8241 1
 6933  8245  8244 1
 6934  8247  8246 1
 6935  8248  8247 1
 6936  8249  8247 1
 6937  8250  8247 1
 6938  8251  8250 1
 6939  8253  8252 1
 6940  8254  8253 1
 6941  8255  8253 1
 6942  8256  8253 1
 6943  8257  8256 1
 6944  8259  8258 1
 6945  8260  8259 1
 6946  8261  8259 1
 6947  8262  8259 1
 6948  8263  8262 1
 6949  8265  8264 1
 6950  8266  8265 1
 6951  8267  8265 1
 6952  8268  8265 1
 6953  8269  8268 1
 6954  8271  8270 1
 6955  8272  8271 1
 6956  8273  8271 1
 6957  8274  8271 1
 6958  8275  8274 1
 6959  8277  8276 1
 6960  8278  8277 1
 6961  8279  8277 1
 6962  8280  8277 1
 6963  8281  8280 1
 6964  8283  8282 1
 6965  8284  8283 1
 6966  8285  8283 1
 6967  8286  8283 1
 6968  8287  8286 1
 6969  8289  8288 1
 6970  8290  8289 1
 6971  8291  8289 1
 6972  8292  8289 1
 6973  8293  8292 1
 6974  8295  8294 1
 6975  8296  8295 1
 6976  8297  8295 1
 6977  8298  8295 1
 6978  8299  8298 1
 6979  8301  8300 1
 6980  8302  8301 1
 6981  8303  8301 1
 6982  8304  8301 1
 6983  8305  8304 1
 6984  8307  8306 1
 6985  8308  8307 1
 6986  8309  8307 1
 6987  8310  8307 1
 6988  8311  8310 1
 6989  8313  8312 1
 6990  8314  8313 1
 6991  8315  8313 1
 6992  8316  8313 1
 6993  8317  8316 1
 6994  8319  8318 1
 6995  8320  8319 1
 6996  8321  8319 1
 6997  8322  8319 1
 6998  8323  8322 1
 6999  8325  8324 1
 7000  8326  8325 1
 7001  8327  8325 1
 7002  8328  8325 1
 7003  8329  8328 1
 7004  8331  8330 1
 7005  8332  8331 1
 7006  8333  8331 1
 7007  8334  8331 1
 7008  8335  8334 1
 7009  8337  8336 1
 7010  8338  8337 1
 7011  8339  8337 1
 7012  8340  8337 1
 7013  8341  8340 1
 7014  8343  8342 1
 7015  8344  8343 1
 7016  8345  8343 1
 7017  8346  8343 1
 7018  8347  8346 1
 7019  8349  8348 1
 7020  8350  8349 1
 7021  8351  8349 1
 7022  8352  8349 1
 7023  8353  8352 1
 7024  8355  8354 1
 7025  8356  8355 1
 7026  8357  8355 1
 7027  8358  8355 1
 7028  8359  8358 1
 7029  8361  8360 1
 7030  8362  8361 1
 7031  8363  8361 1
 7032  8364  8361 1
 7033  8365  8364 1
 7034  8367  8366 1
 7035  8368  8367 1
 7036  8369  8367 1
 7037  8370  8367 1
 7038  8371  8370 1
 7039  8373  8372 1
 7040  8374  8373 1
 7041  8375  8373 1
 7042  8376  8373 1
 7043  8377  8376 1
 7044  8379  8378 1
 7045  8380  8379 1
 7046  8381  8379 1
 7047  8382  8379 1
 7048  8383  8382 1
 7049  8385  8384 1
 7050  8386  8385 1
 7051  8387  8385 1
 7052  8388  8385 1
 7053  8389  8388 1
 7054  8391  8390 1
 7055  8392  8391 1
 7056  8393  8391 1
 7057  8394  8391 1
 7058  8395  8394 1
 7059  8397  8396 1
 7060  8398  8397 1
 7061  8399  8397 1
 7062  8400  8397 1
 7063  8401  8400 1
 7064  8403  8402 1
 7065  8404  8403 1
 7066  8405  8403 1
 7067  8406  8403 1
 7068  8407  8406 1
 7069  8409  8408 1
 7070  8410  8409 1
 7071  8411  8409 1
 7072  8412  8409 1
 7073  8413  8412 1
 7074  8415  8414 1
 7075  8416  8415 1
 7076  8417  8415 1
 7077  8418  8415 1
 7078  8419  8418 1
 7079  8421  8420 1
 7080  8422  8421 1
 7081  8423  8421 1
 7082  8424  8421 1
 7083  8425  8424 1
 7084  8427  8426 1
 7085  8428  8427 1
 7086  8429  8427 1
 7087  8430  8427 1
 7088  8431  8430 1
 7089  8433  8432 1
 7090  8434  8433 1
 7091  8435  8433 1
 7092  8436  8433 1
 7093  8437  8436 1
 7094  8439  8438 1
 7095  8440  8439 1
 7096  8441  8439 1
 7097  8442  8439 1
 7098  8443  8442 1
 7099  8445  8444 1
 7100  8446  8445 1
 7101  8447  8445 1
 7102  8448  8445 1
 7103  8449  8448 1
 7104  8451  8450 1
 7105  8452  8451 1
 7106  8453  8451 1
 7107  8454  8451 1
 7108  8455  8454 1
 7109  8457  8456 1
 7110  8458  8457 1
 7111  8459  8457 1
 7112  8460  8457 1
 7113  8461  8460 1
 7114  8463  8462 1
 7115  8464  8463 1
 7116  8465  8463 1
 7117  8466  8463 1
 7118  8467  8466 1
 7119  8469  8468 1
 7120  8470  8469 1
 7121  8471  8469 1
 7122  8472  8469 1
 7123  8473  8472 1
 7124  8475  8474 1
 7125  8476  8475 1
 7126  8477  8475 1
 7127  8478  8475 1
 7128  8479  8478 1
 7129  8481  8480 1
 7130  8482  8481 1
 7131  8483  8481 1
 7132  8484  8481 1
 7133  8485  8484 1
 7134  8487  8486 1
 7135  8488  8487 1
 7136  8489  8487 1
 7137  8490  8487 1
 7138  8491  8490 1
 7139  8493  8492 1
 7140  8494  8493 1
 7141  8495  8493 1
 7142  8496  8493 1
 7143  8497  8496 1
 7144  8499  8498 1
 7145  8500  8499 1
 7146  8501  8499 1
 7147  8502  8499 1
 7148  8503  8502 1
 7149  8505  8504 1
 7150  8506  8505 1
 7151  8507  8505 1
 7152  8508  8505 1
 7153  8509  8508 1
 7154  8511  8510 1
 7155  8512  8511 1
 7156  8513  8511 1
 7157  8514  8511 1
 7158  8515  8514 1
 7159  8517  8516 1
 7160  8518  8517 1
 7161  8519  8517 1
 7162  8520  8517 1
 7163  8521  8520 1
 7164  8523  8522 1
 7165  8524  8523 1
 7166  8525  8523 1
 7167  8526  8523 1
 7168  8527  8526 1
 7169  8529  8528 1
 7170  8530  8529 1
 7171  8531  8529 1
 7172  8532  8529 1
 7173  8533  8532 1
 7174  8535  8534 1
 7175  8536  8535 1
 7176  8537  8535 1
 7177  8538  8535 1
 7178  8539  8538 1
 7179  8541  8540 1
 7180  8542  8541 1
 7181  8543  8541 1
 7182  8544  8541 1
 7183  8545  8544 1
 7184  8547  8546 1
 7185  8548  8547 1
 7186  8549  8547 1
 7187  8550  8547 1
 7188  8551  8550 1
 7189  8553  8552 1
 7190  8554  8553 1
 7191  8555  8553 1
 7192  8556  8553 1
 7193  8557  8556 1
 7194  8559  8558 1
 7195  8560  8559 1
 7196  8561  8559 1
 7197  8562  8559 1
 7198  8563  8562 1
 7199  8565  8564 1
 7200  8566  8565 1
 7201  8567  8565 1
 7202  8568  8565 1
 7203  8569  8568 1
 7204  8571  8570 1
 7205  8572  8571 1
 7206  8573  8571 1
 7207  8574  8571 1
 7208  8575  8574 1
 7209  8577  8576 1
 7210  8578  8577 1
 7211  8579  8577 1
 7212  8580  8577 1
 7213  8581  8580 1
 7214  8583  8582 1
 7215  8584  8583 1
 7216  8585  8583 1
 7217  8586  8583 1
 7218  8587  8586 1
 7219  8589  8588 1
 7220  8590  8589 1
 7221  8591  8589 1
 7222  8592  8589 1
 7223  8593  8592 1
 7224  8595  8594 1
 7225  8596  8595 1
 7226  8597  8595 1
 7227  8598  8595 1
 7228  8599  8598 1
 7229  8601  8600 1
 7230  8602  8601 1
 7231  8603  8601 1
 7232  8604  8601 1
 7233  8605  8604 1
 7234  8607  8606 1
 7235  8608  8607 1
 7236  8609  8607 1
 7237  8610  8607 1
 7238  8611  8610 1
 7239  8613  8612 1
 7240  8614  8613 1
 7241  8615  8613 1
 7242  8616  8613 1
 7243  8617  8616 1
 7244  8619  8618 1
 7245  8620  8619 1
 7246  8621  8619 1
 7247  8622  8619 1
 7248  8623  8622 1
 7249  8625  8624 1
 7250  8626  8625 1
 7251  8627  8625 1
 7252  8628  8625 1
 7253  8629  8628 1
 7254  8631  8630 1
 7255  8632  8631 1
 7256  8633  8631 1
 7257  8634  8631 1
 7258  8635  8634 1
 7259  8637  8636 1
 7260  8638  8637 1
 7261  8639  8637 1
 7262  8640  8637 1
 7263  8641  8640 1
 7264  8643  8642 1
 7265  8644  8643 1
 7266  8645  8643 1
 7267  8646  8643 1
 7268  8647  8646 1
 7269  8649  8648 1
 7270  8650  8649 1
 7271  8651  8649 1
 7272  8652  8649 1
 7273  8653  8652 1
 7274  8655  8654 1
 7275  8656  8655 1
 7276  8657  8655 1
 7277  8658  8655 1
 7278  8659  8658 1
 7279  8661  8660 1
 7280  8662  8661 1
 7281  8663  8661 1
 7282  8664  8661 1
 7283  8665  8664 1
 7284  8667  8666 1
 7285  8668  8667 1
 7286  8669  8667 1
 7287  8670  8667 1
 7288  8671  8670 1
 7289  8673  8672 1
 7290  8674  8673 1
 7291  8675  8673 1
 7292  8676  8673 1
 7293  8677  8676 1
 7294  8679  8678 1
 7295  8680  8679 1
 7296  8681  8679 1
 7297  8682  8679 1
 7298  8683  8682 1
 7299  8685  8684 1
 7300  8686  8685 1
 7301  8687  8685 1
 7302  8688  8685 1
 7303  8689  8688 1
 7304  8691  8690 1
 7305  8692  8691 1
 7306  8693  8691 1
 7307  8694  8691 1
 7308  8695  8694 1
 7309  8697  8696 1
 7310  8698  8697 1
 7311  8699  8697 1
 7312  8700  8697 1
 7313  8701  8700 1
 7314  8703  8702 1
 7315  8704  8703 1
 7316  8705  8703 1
 7317  8706  8703 1
 7318  8707  8706 1
 7319  8709  8708 1
 7320  8710  8709 1
 7321  8711  8709 1
 7322  8712  8709 1
 7323  8713  8712 1
 7324  8715  8714 1
 7325  8716  8715 1
 7326  8717  8715 1
 7327  8718  8715 1
 7328  8719  8718 1
 7329  8721  8720 1
 7330  8722  8721 1
 7331  8723  8721 1
 7332  8724  8721 1
 7333  8725  8724 1
 7334  8727  8726 1
 7335  8728  8727 1
 7336  8729  8727 1
 7337  8730  8727 1
 7338  8731  8730 1
 7339  8733  8732 1
 7340  8734  8733 1
 7341  8735  8733 1
 7342  8736  8733 1
 7343  8737  8736 1
 7344  8739  8738 1
 7345  8740  8739 1
 7346  8741  8739 1
 7347  8742  8739 1
 7348  8743  8742 1
 7349  8745  8744 1
 7350  8746  8745 1
 7351  8747  8745 1
 7352  8748  8745 1
 7353  8749  8748 1
 7354  8751  8750 1
 7355  8752  8751 1
 7356  8753  8751 1
 7357  8754  8751 1
 7358  8755  8754 1
 7359  8757  8756 1
 7360  8758  8757 1
 7361  8759  8757 1
 7362  8760  8757 1
 7363  8761  8760 1
 7364  8763  8762 1
 7365  8764  8763 1
 7366  8765  8763 1
 7367  8766  8763 1
 7368  8767  8766 1
 7369  8769  8768 1
 7370  8770  8769 1
 7371  8771  8769 1
 7372  8772  8769 1
 7373  8773  8772 1
 7374  8775  8774 1
 7375  8776  8775 1
 7376  8777  8775 1
 7377  8778  8775 1
 7378  8779  8778 1
 7379  8781  8780 1
 7380  8782  8781 1
 7381  8783  8781 1
 7382  8784  8781 1
 7383  8785  8784 1
 7384  8787  8786 1
 7385  8788  8787 1
 7386  8789  8787 1
 7387  8790  8787 1
 7388  8791  8790 1
 7389  8793  8792 1
 7390  8794  8793 1
 7391  8795  8793 1
 7392  8796  8793 1
 7393  8797  8796 1
 7394  8799  8798 1
 7395  8800  8799 1
 7396  8801  8799 1
 7397  8802  8799 1
 7398  8803  8802 1
 7399  8805  8804 1
 7400  8806  8805 1
 7401  8807  8805 1
 7402  8808  8805 1
 7403  8809  8808 1
 7404  8811  8810 1
 7405  8812  8811 1
 7406  8813  8811 1
 7407  8814  8811 1
 7408  8815  8814 1
 7409  8817  8816 1
 7410  8818  8817 1
 7411  8819  8817 1
 7412  8820  8817 1
 7413  8821  8820 1
 7414  8823  8822 1
 7415  8824  8823 1
 7416  8825  8823 1
 7417  8826  8823 1
 7418  8827  8826 1
 7419  8829  8828 1
 7420  8830  8829 1
 7421  8831  8829 1
 7422  8832  8829 1
 7423  8833  8832 1
 7424  8835  8834 1
 7425  8836  8835 1
 7426  8837  8835 1
 7427  8838  8835 1
 7428  8839  8838 1
 7429  8841  8840 1
 7430  8842  8841 1
 7431  8843  8841 1
 7432  8844  8841 1
 7433  8845  8844 1
 7434  8847  8846 1
 7435  8848  8847 1
 7436  8849  8847 1
 7437  8850  8847 1
 7438  8851  8850 1
 7439  8853  8852 1
 7440  8854  8853 1
 7441  8855  8853 1
 7442  8856  8853 1
 7443  8857  8856 1
 7444  8859  8858 1
 7445  8860  8859 1
 7446  8861  8859 1
 7447  8862  8859 1
 7448  8863  8862 1
 7449  8865  8864 1
 7450  8866  8865 1
 7451  8867  8865 1
 7452  8868  8865 1
 7453  8869  8868 1
 7454  8871  8870 1
 7455  8872  8871 1
 7456  8873  8871 1
 7457  8874  8871 1
 7458  8875  8874 1
 7459  8877  8876 1
 7460  8878  8877 1
 7461  8879  8877 1
 7462  8880  8877 1
 7463  8881  8880 1
 7464  8883  8882 1
 7465  8884  8883 1
 7466  8885  8883 1
 7467  8886  8883 1
 7468  8887  8886 1
 7469  8889  8888 1
 7470  8890  8889 1
 7471  8891  8889 1
 7472  8892  8889 1
 7473  8893  8892 1
 7474  8895  8894 1
 7475  8896  8895 1
 7476  8897  8895 1
 7477  8898  8895 1
 7478  8899  8898 1
 7479  8901  8900 1
 7480  8902  8901 1
 7481  8903  8901 1
 7482  8904  8901 1
 7483  8905  8904 1
 7484  8907  8906 1
 7485  8908  8907 1
 7486  8909  8907 1
 7487  8910  8907 1
 7488  8911  8910 1
 7489  8913  8912 1
 7490  8914  8913 1
 7491  8915  8913 1
 7492  8916  8913 1
 7493  8917  8916 1
 7494  8919  8918 1
 7495  8920  8919 1
 7496  8921  8919 1
 7497  8922  8919 1
 7498  8923  8922 1
 7499  8925  8924 1
 7500  8926  8925 1
 7501  8927  8925 1
 7502  8928  8925 1
 7503  8929  8928 1
 7504  8931  8930 1
 7505  8932  8931 1
 7506  8933  8931 1
 7507  8934  8931 1
 7508  8935  8934 1
 7509  8937  8936 1
 7510  8938  8937 1
 7511  8939  8937 1
 7512  8940  8937 1
 7513  8941  8940 1
 7514  8943  8942 1
 7515  8944  8943 1
 7516  8945  8943 1
 7517  8946  8943 1
 7518  8947  8946 1
 7519  8949  8948 1
 7520  8950  8949 1
 7521  8951  8949 1
 7522  8952  8949 1
 7523  8953  8952 1
 7524  8955  8954 1
 7525  8956  8955 1
 7526  8957  8955 1
 7527  8958  8955 1
 7528  8959  8958 1
 7529  8961  8960 1
 7530  8962  8961 1
 7531  8963  8961 1
 7532  8964  8961 1
 7533  8965  8964 1
 7534  8967  8966 1
 7535  8968  8967 1
 7536  8969  8967 1
 7537  8970  8967 1
 7538  8971  8970 1
 7539  8973  8972 1
 7540  8974  8973 1
 7541  8975  8973 1
 7542  8976  8973 1
 7543  8977  8976 1
 7544  8979  8978 1
 7545  8980  8979 1
 7546  8981  8979 1
 7547  8982  8979 1
 7548  8983  8982 1
 7549  8985  8984 1
 7550  8986  8985 1
 7551  8987  8985 1
 7552  8988  8985 1
 7553  8989  8988 1
 7554  8991  8990 1
 7555  8992  8991 1
 7556  8993  8991 1
 7557  8994  8991 1
 7558  8995  8994 1
 7559  8997  8996 1
 7560  8998  8997 1
 7561  8999  8997 1
 7562  9000  8997 1
 7563  9001  9000 1
 7564  9003  9002 1
 7565  9004  9003 1
 7566  9005  9003 1
 7567  9006  9003 1
 7568  9007  9006 1
 7569  9009  9008 1
 7570  9010  9009 1
 7571  9011  9009 1
 7572  9012  9009 1
 7573  9013  9012 1
 7574  9015  9014 1
 7575  9016  9015 1
 7576  9017  9015 1
 7577  9018  9015 1
 7578  9019  9018 1
 7579  9021  9020 1
 7580  9022  9021 1
 7581  9023  9021 1
 7582  9024  9021 1
 7583  9025  9024 1
 7584  9027  9026 1
 7585  9028  9027 1
 7586  9029  9027 1
 7587  9030  9027 1
 7588  9031  9030 1
 7589  9033  9032 1
 7590  9034  9033 1
 7591  9035  9033 1
 7592  9036  9033 1
 7593  9037  9036 1
 7594  9039  9038 1
 7595  9040  9039 1
 7596  9041  9039 1
 7597  9042  9039 1
 7598  9043  9042 1
 7599  9045  9044 1
 7600  9046  9045 1
 7601  9047  9045 1
 7602  9048  9045 1
 7603  9049  9048 1
 7604  9051  9050 1
 7605  9052  9051 1
 7606  9053  9051 1
 7607  9054  9051 1
 7608  9055  9054 1
 7609  9057  9056 1
 7610  9058  9057 1
 7611  9059  9057 1
 7612  9060  9057 1
 7613  9061  9060 1
 7614  9063  9062 1
 7615  9064  9063 1
 7616  9065  9063 1
 7617  9066  9063 1
 7618  9067  9066 1
 7619  9069  9068 1
 7620  9070  9069 1
 7621  9071  9069 1
 7622  9072  9069 1
 7623  9073  9072 1
 7624  9075  9074 1
 7625  9076  9075 1
 7626  9077  9075 1
 7627  9078  9075 1
 7628  9079  9078 1
 7629  9081  9080 1
 7630  9082  9081 1
 7631  9083  9081 1
 7632  9084  9081 1
 7633  9085  9084 1
 7634  9087  9086 1
 7635  9088  9087 1
 7636  9089  9087 1
 7637  9090  9087 1
 7638  9091  9090 1
 7639  9093  9092 1
 7640  9094  9093 1
 7641  9095  9093 1
 7642  9096  9093 1
 7643  9097  9096 1
 7644  9099  9098 1
 7645  9100  9099 1
 7646  9101  9099 1
 7647  9102  9099 1
 7648  9103  9102 1
 7649  9105  9104 1
 7650  9106  9105 1
 7651  9107  9105 1
 7652  9108  9105 1
 7653  9109  9108 1
 7654  9111  9110 1
 7655  9112  9111 1
 7656  9113  9111 1
 7657  9114  9111 1
 7658  9115  9114 1
 7659  9117  9116 1
 7660  9118  9117 1
 7661  9119  9117 1
 7662  9120  9117 1
 7663  9121  9120 1
 7664  9123  9122 1
 7665  9124  9123 1
 7666  9125  9123 1
 7667  9126  9123 1
 7668  9127  9126 1
 7669  9129  9128 1
 7670  9130  9129 1
 7671  9131  9129 1
 7672  9132  9129 1
 7673  9133  9132 1
 7674  9135  9134 1
 7675  9136  9135 1
 7676  9137  9135 1
 7677  9138  9135 1
 7678  9139  9138 1
 7679  9141  9140 1
 7680  9142  9141 1
 7681  9143  9141 1
 7682  9144  9141 1
 7683  9145  9144 1
 7684  9147  9146 1
 7685  9148  9147 1
 7686  9149  9147 1
 7687  9150  9147 1
 7688  9151  9150 1
 7689  9153  9152 1
 7690  9154  9153 1
 7691  9155  9153 1
 7692  9156  9153 1
 7693  9157  9156 1
 7694  9159  9158 1
 7695  9160  9159 1
 7696  9161  9159 1
 7697  9162  9159 1
 7698  9163  9162 1
 7699  9165  9164 1
 7700  9166  9165 1
 7701  9167  9165 1
 7702  9168  9165 1
 7703  9169  9168 1
 7704  9171  9170 1
 7705  9172  9171 1
 7706  9173  9171 1
 7707  9174  9171 1
 7708  9175  9174 1
 7709  9177  9176 1
 7710  9178  9177 1
 7711  9179  9177 1
 7712  9180  9177 1
 7713  9181  9180 1
 7714  9183  9182 1
 7715  9184  9183 1
 7716  9185  9183 1
 7717  9186  9183 1
 7718  9187  9186 1
 7719  9189  9188 1
 7720  9190  9189 1
 7721  9191  9189 1
 7722  9192  9189 1
 7723  9193  9192 1
 7724  9195  9194 1
 7725  9196  9195 1
 7726  9197  9195 1
 7727  9198  9195 1
 7728  9199  9198 1
 7729  9201  9200 1
 7730  9202  9201 1
 7731  9203  9201 1
 7732  9204  9201 1
 7733  9205  9204 1
 7734  9207  9206 1
 7735  9208  9207 1
 7736  9209  9207 1
 7737  9210  9207 1
 7738  9211  9210 1
 7739  9213  9212 1
 7740  9214  9213 1
 7741  9215  9213 1
 7742  9216  9213 1
 7743  9217  9216 1
 7744  9219  9218 1
 7745  9220  9219 1
 7746  9221  9219 1
 7747  9222  9219 1
 7748  9223  9222 1
 7749  9225  9224 1
 7750  9226  9225 1
 7751  9227  9225 1
 7752  9228  9225 1
 7753  9229  9228 1
 7754  9231  9230 1
 7755  9232  9231 1
 7756  9233  9231 1
 7757  9234  9231 1
 7758  9235  9234 1
 7759  9237  9236 1
 7760  9238  9237 1
 7761  9239  9237 1
 7762  9240  9237 1
 7763  9241  9240 1
 7764  9243  9242 1
 7765  9244  9243 1
 7766  9245  9243 1
 7767  9246  9243 1
 7768  9247  9246 1
 7769  9249  9248 1
 7770  9250  9249 1
 7771  9251  9249 1
 7772  9252  9249 1
 7773  9253  9252 1
 7774  9255  9254 1
 7775  9256  9255 1
 7776  9257  9255 1
 7777  9258  9255 1
 7778  9259  9258 1
 7779  9261  9260 1
 7780  9262  9261 1
 7781  9263  9261 1
 7782  9264  9261 1
 7783  9265  9264 1
 7784  9267  9266 1
 7785  9268  9267 1
 7786  9269  9267 1
 7787  9270  9267 1
 7788  9271  9270 1
 7789  9273  9272 1
 7790  9274  9273 1
 7791  9275  9273 1
 7792  9276  9273 1
 7793  9277  9276 1
 7794  9279  9278 1
 7795  9280  9279 1
 7796  9281  9279 1
 7797  9282  9279 1
 7798  9283  9282 1
 7799  9285  9284 1
 7800  9286  9285 1
 7801  9287  9285 1
 7802  9288  9285 1
 7803  9289  9288 1
 7804  9291  9290 1
 7805  9292  9291 1
 7806  9293  9291 1
 7807  9294  9291 1
 7808  9295  9294 1
 7809  9297  9296 1
 7810  9298  9297 1
 7811  9299  9297 1
 7812  9300  9297 1
 7813  9301  9300 1
 7814  9303  9302 1
 7815  9304  9303 1
 7816  9305  9303 1
 7817  9306  9303 1
 7818  9307  9306 1
 7819  9309  9308 1
 7820  9310  9309 1
 7821  9311  9309 1
 7822  9312  9309 1
 7823  9313  9312 1
 7824  9315  9314 1
 7825  9316  9315 1
 7826  9317  9315 1
 7827  9318  9315 1
 7828  9319  9318 1
 7829  9321  9320 1
 7830  9322  9321 1
 7831  9323  9321 1
 7832  9324  9321 1
 7833  9325  9324 1
 7834  9327  9326 1
 7835  9328  9327 1
 7836  9329  9327 1
 7837  9330  9327 1
 7838  9331  9330 1
 7839  9333  9332 1
 7840  9334  9333 1
 7841  9335  9333 1
 7842  9336  9333 1
 7843  9337  9336 1
 7844  9339  9338 1
 7845  9340  9339 1
 7846  9341  9339 1
 7847  9342  9339 1
 7848  9343  9342 1
 7849  9345  9344 1
 7850  9346  9345 1
 7851  9347  9345 1
 7852  9348  9345 1
 7853  9349  9348 1
 7854  9351  9350 1
 7855  9352  9351 1
 7856  9353  9351 1
 7857  9354  9351 1
 7858  9355  9354 1
 7859  9357  9356 1
 7860  9358  9357 1
 7861  9359  9357 1
 7862  9360  9357 1
 7863  9361  9360 1
 7864  9363  9362 1
 7865  9364  9363 1
 7866  9365  9363 1
 7867  9366  9363 1
 7868  9367  9366 1
 7869  9369  9368 1
 7870  9370  9369 1
 7871  9371  9369 1
 7872  9372  9369 1
 7873  9373  9372 1
 7874  9375  9374 1
 7875  9376  9375 1
 7876  9377  9375 1
 7877  9378  9375 1
 7878  9379  9378 1
 7879  9381  9380 1
 7880  9382  9381 1
 7881  9383  9381 1
 7882  9384  9381 1
 7883  9385  9384 1
 7884  9387  9386 1
 7885  9388  9387 1
 7886  9389  9387 1
 7887  9390  9387 1
 7888  9391  9390 1
 7889  9393  9392 1
 7890  9394  9393 1
 7891  9395  9393 1
 7892  9396  9393 1
 7893  9397  9396 1
 7894  9399  9398 1
 7895  9400  9399 1
 7896  9401  9399 1
 7897  9402  9399 1
 7898  9403  9402 1
 7899  9405  9404 1
 7900  9406  9405 1
 7901  9407  9405 1
 7902  9408  9405 1
 7903  9409  9408 1
 7904  9411  9410 1
 7905  9412  9411 1
 7906  9413  9411 1
 7907  9414  9411 1
 7908  9415  9414 1
 7909  9417  9416 1
 7910  9418  9417 1
 7911  9419  9417 1
 7912  9420  9417 1
 7913  9421  9420 1
 7914  9423  9422 1
 7915  9424  9423 1
 7916  9425  9423 1
 7917  9426  9423 1
 7918  9427  9426 1
 7919  9429  9428 1
 7920  9430  9429 1
 7921  9431  9429 1
 7922  9432  9429 1
 7923  9433  9432 1
 7924  9435  9434 1
 7925  9436  9435 1
 7926  9437  9435 1
 7927  9438  9435 1
 7928  9439  9438 1
 7929  9441  9440 1
 7930  9442  9441 1
 7931  9443  9441 1
 7932  9444  9441 1
 7933  9445  9444 1
 7934  9447  9446 1
 7935  9448  9447 1
 7936  9449  9447 1
 7937  9450  9447 1
 7938  9451  9450 1
 7939  9453  9452 1
 7940  9454  9453 1
 7941  9455  9453 1
 7942  9456  9453 1
 7943  9457  9456 1
 7944  9459  9458 1
 7945  9460  9459 1
 7946  9461  9459 1
 7947  9462  9459 1
 7948  9463  9462 1
 7949  9465  9464 1
 7950  9466  9465 1
 7951  9467  9465 1
 7952  9468  9465 1
 7953  9469  9468 1
 7954  9471  9470 1
 7955  9472  9471 1
 7956  9473  9471 1
 7957  9474  9471 1
 7958  9475  9474 1
 7959  9477  9476 1
 7960  9478  9477 1
 7961  9479  9477 1
 7962  9480  9477 1
 7963  9481  9480 1
 7964  9483  9482 1
 7965  9484  9483 1
 7966  9485  9483 1
 7967  9486  9483 1
 7968  9487  9486 1
 7969  9489  9488 1
 7970  9490  9489 1
 7971  9491  9489 1
 7972  9492  9489 1
 7973  9493  9492 1
 7974  9495  9494 1
 7975  9496  9495 1
 7976  9497  9495 1
 7977  9498  9495 1
 7978  9499  9498 1
 7979  9501  9500 1
 7980  9502  9501 1
 7981  9503  9501 1
 7982  9504  9501 1
 7983  9505  9504 1
 7984  9507  9506 1
 7985  9508  9507 1
 7986  9509  9507 1
 7987  9510  9507 1
 7988  9511  9510 1
 7989  9513  9512 1
 7990  9514  9513 1
 7991  9515  9513 1
 7992  9516  9513 1
 7993  9517  9516 1
 7994  9519  9518 1
 7995  9520  9519 1
 7996  9521  9519 1
 7997  9522  9519 1
 7998  9523  9522 1
 7999  9525  9524 1
 8000  9526  9525 1
 8001  9527  9525 1
 8002  9528  9525 1
 8003  9529  9528 1
 8004  9531  9530 1
 8005  9532  9531 1
 8006  9533  9531 1
 8007  9534  9531 1
 8008  9535  9534 1
 8009  9537  9536 1
 8010  9538  9537 1
 8011  9539  9537 1
 8012  9540  9537 1
 8013  9541  9540 1
 8014  9543  9542 1
 8015  9544  9543 1
 8016  9545  9543 1
 8017  9546  9543 1
 8018  9547  9546 1
 8019  9549  9548 1
 8020  9550  9549 1
 8021  9551  9549 1
 8022  9552  9549 1
 8023  9553  9552 1
 8024  9555  9554 1
 8025  9556  9555 1
 8026  9557  9555 1
 8027  9558  9555 1
 8028  9559  9558 1
 8029  9561  9560 1
 8030  9562  9561 1
 8031  9563  9561 1
 8032  9564  9561 1
 8033  9565  9564 1
 8034  9567  9566 1
 8035  9568  9567 1
 8036  9569  9567 1
 8037  9570  9567 1
 8038  9571  9570 1
 8039  9573  9572 1
 8040  9574  9573 1
 8041  9575  9573 1
 8042  9576  9573 1
 8043  9577  9576 1
 8044  9579  9578 1
 8045  9580  9579 1
 8046  9581  9579 1
 8047  9582  9579 1
 8048  9583  9582 1
 8049  9585  9584 1
 8050  9586  9585 1
 8051  9587  9585 1
 8052  9588  9585 1
 8053  9589  9588 1
 8054  9591  9590 1
 8055  9592  9591 1
 8056  9593  9591 1
 8057  9594  9591 1
 8058  9595  9594 1
 8059  9597  9596 1
 8060  9598  9597 1
 8061  9599  9597 1
 8062  9600  9597 1
 8063  9601  9600 1
 8064  9603  9602 1
 8065  9604  9603 1
 8066  9605  9603 1
 8067  9606  9603 1
 8068  9607  9606 1
 8069  9609  9608 1
 8070  9610  9609 1
 8071  9611  9609 1
 8072  9612  9609 1
 8073  9613  9612 1
 8074  9615  9614 1
 8075  9616  9615 1
 8076  9617  9615 1
 8077  9618  9615 1
 8078  9619  9618 1
 8079  9621  9620 1
 8080  9622  9621 1
 8081  9623  9621 1
 8082  9624  9621 1
 8083  9625  9624 1
 8084  9627  9626 1
 8085  9628  9627 1
 8086  9629  9627 1
 8087  9630  9627 1
 8088  9631  9630 1
 8089  9633  9632 1
 8090  9634  9633 1
 8091  9635  9633 1
 8092  9636  9633 1
 8093  9637  9636 1
 8094  9639  9638 1
 8095  9640  9639 1
 8096  9641  9639 1
 8097  9642  9639 1
 8098  9643  9642 1
 8099  9645  9644 1
 8100  9646  9645 1
 8101  9647  9645 1
 8102  9648  9645 1
 8103  9649  9648 1
 8104  9651  9650 1
 8105  9652  9651 1
 8106  9653  9651 1
 8107  9654  9651 1
 8108  9655  9654 1
 8109  9657  9656 1
 8110  9658  9657 1
 8111  9659  9657 1
 8112  9660  9657 1
 8113  9661  9660 1
 8114  9663  9662 1
 8115  9664  9663 1
 8116  9665  9663 1
 8117  9666  9663 1
 8118  9667  9666 1
 8119  9669  9668 1
 8120  9670  9669 1
 8121  9671  9669 1
 8122  9672  9669 1
 8123  9673  9672 1
 8124  9675  9674 1
 8125  9676  9675 1
 8126  9677  9675 1
 8127  9678  9675 1
 8128  9679  9678 1
 8129  9681  9680 1
 8130  9682  9681 1
 8131  9683  9681 1
 8132  9684  9681 1
 8133  9685  9684 1
 8134  9687  9686 1
 8135  9688  9687 1
 8136  9689  9687 1
 8137  9690  9687 1
 8138  9691  9690 1
 8139  9693  9692 1
 8140  9694  9693 1
 8141  9695  9693 1
 8142  9696  9693 1
 8143  9697  9696 1
 8144  9699  9698 1
 8145  9700  9699 1
 8146  9701  9699 1
 8147  9702  9699 1
 8148  9703  9702 1
 8149  9705  9704 1
 8150  9706  9705 1
 8151  9707  9705 1
 8152  9708  9705 1
 8153  9709  9708 1
 8154  9711  9710 1
 8155  9712  9711 1
 8156  9713  9711 1
 8157  9714  9711 1
 8158  9715  9714 1
 8159  9717  9716 1
 8160  9718  9717 1
 8161  9719  9717 1
 8162  9720  9717 1
 8163  9721  9720 1
 8164  9723  9722 1
 8165  9724  9723 1
 8166  9725  9723 1
 8167  9726  9723 1
 8168  9727  9726 1
 8169  9729  9728 1
 8170  9730  9729 1
 8171  9731  9729 1
 8172  9732  9729 1
 8173  9733  9732 1
 8174  9735  9734 1
 8175  9736  9735 1
 8176  9737  9735 1
 8177  9738  9735 1
 8178  9739  9738 1
 8179  9741  9740 1
 8180  9742  9741 1
 8181  9743  9741 1
 8182  9744  9741 1
 8183  9745  9744 1
 8184  9747  9746 1
 8185  9748  9747 1
 8186  9749  9747 1
 8187  9750  9747 1
 8188  9751  9750 1
 8189  9753  9752 1
 8190  9754  9753 1
 8191  9755  9753 1
 8192  9756  9753 1
 8193  9757  9756 1
 8194  9759  9758 1
 8195  9760  9759 1
 8196  9761  9759 1
 8197  9762  9759 1
 8198  9763  9762 1
 8199  9765  9764 1
 8200  9766  9765 1
 8201  9767  9765 1
 8202  9768  9765 1
 8203  9769  9768 1
 8204  9771  9770 1
 8205  9772  9771 1
 8206  9773  9771 1
 8207  9774  9771 1
 8208  9775  9774 1
 8209  9777  9776 1
 8210  9778  9777 1
 8211  9779  9777 1
 8212  9780  9777 1
 8213  9781  9780 1
 8214  9783  9782 1
 8215  9784  9783 1
 8216  9785  9783 1
 8217  9786  9783 1
 8218  9787  9786 1
 8219  9789  9788 1
 8220  9790  9789 1
 8221  9791  9789 1
 8222  9792  9789 1
 8223  9793  9792 1
 8224  9795  9794 1
 8225  9796  9795 1
 8226  9797  9795 1
 8227  9798  9795 1
 8228  9799  9798 1
 8229  9801  9800 1
 8230  9802  9801 1
 8231  9803  9801 1
 8232  9804  9801 1
 8233  9805  9804 1
 8234  9807  9806 1
 8235  9808  9807 1
 8236  9809  9807 1
 8237  9810  9807 1
 8238  9811  9810 1
 8239  9813  9812 1
 8240  9814  9813 1
 8241  9815  9813 1
 8242  9816  9813 1
 8243  9817  9816 1
 8244  9819  9818 1
 8245  9820  9819 1
 8246  9821  9819 1
 8247  9822  9819 1
 8248  9823  9822 1
 8249  9825  9824 1
 8250  9826  9825 1
 8251  9827  9825 1
 8252  9828  9825 1
 8253  9829  9828 1
 8254  9831  9830 1
 8255  9832  9831 1
 8256  9833  9831 1
 8257  9834  9831 1
 8258  9835  9834 1
 8259  9837  9836 1
 8260  9838  9837 1
 8261  9839  9837 1
 8262  9840  9837 1
 8263  9841  9840 1
 8264  9843  9842 1
 8265  9844  9843 1
 8266  9845  9843 1
 8267  9846  9843 1
 8268  9847  9846 1
 8269  9849  9848 1
 8270  9850  9849 1
 8271  9851  9849 1
 8272  9852  9849 1
 8273  9853  9852 1
 8274  9855  9854 1
 8275  9856  9855 1
 8276  9857  9855 1
 8277  9858  9855 1
 8278  9859  9858 1
 8279  9861  9860 1
 8280  9862  9861 1
 8281  9863  9861 1
 8282  9864  9861 1
 8283  9865  9864 1
 8284  9867  9866 1
 8285  9868  9867 1
 8286  9869  9867 1
 8287  9870  9867 1
 8288  9871  9870 1
 8289  9873  9872 1
 8290  9874  9873 1
 8291  9875  9873 1
 8292  9876  9873 1
 8293  9877  9876 1
 8294  9879  9878 1
 8295  9880  9879 1
 8296  9881  9879 1
 8297  9882  9879 1
 8298  9883  9882 1
 8299  9885  9884 1
 8300  9886  9885 1
 8301  9887  9885 1
 8302  9888  9885 1
 8303  9889  9888 1
 8304  9891  9890 1
 8305  9892  9891 1
 8306  9893  9891 1
 8307  9894  9891 1
 8308  9895  9894 1
 8309  9897  9896 1
 8310  9898  9897 1
 8311  9899  9897 1
 8312  9900  9897 1
 8313  9901  9900 1
 8314  9903  9902 1
 8315  9904  9903 1
 8316  9905  9903 1
 8317  9906  9903 1
 8318  9907  9906 1
 8319  9909  9908 1
 8320  9910  9909 1
 8321  9911  9909 1
 8322  9912  9909 1
 8323  9913  9912 1
 8324  9915  9914 1
 8325  9916  9915 1
 8326  9917  9915 1
 8327  9918  9915 1
 8328  9919  9918 1
 8329  9921  9920 1
 8330  9922  9921 1
 8331  9923  9921 1
 8332  9924  9921 1
 8333  9925  9924 1
 8334  9927  9926 1
 8335  9928  9927 1
 8336  9929  9927 1
 8337  9930  9927 1
 8338  9931  9930 1
 8339  9933  9932 1
 8340  9934  9933 1
 8341  9935  9933 1
 8342  9936  9933 1
 8343  9937  9936 1
 8344  9939  9938 1
 8345  9940  9939 1
 8346  9941  9939 1
 8347  9942  9939 1
 8348  9943  9942 1
 8349  9945  9944 1
 8350  9946  9945 1
 8351  9947  9945 1
 8352  9948  9945 1
 8353  9949  9948 1
 8354  9951  9950 1
 8355  9952  9951 1
 8356  9953  9951 1
 8357  9954  9951 1
 8358  9955  9954 1
 8359  9957  9956 1
 8360  9958  9957 1
 8361  9959  9957 1
 8362  9960  9957 1
 8363  9961  9960 1
 8364  9963  9962 1
 8365  9964  9963 1
 8366  9965  9963 1
 8367  9966  9963 1
 8368  9967  9966 1
 8369  9969  9968 1
 8370  9970  9969 1
 8371  9971  9969 1
 8372  9972  9969 1
 8373  9973  9972 1
 8374  9975  9974 1
 8375  9976  9975 1
 8376  9977  9975 1
 8377  9978  9975 1
 8378  9979  9978 1
 8379  9981  9980 1
 8380  9982  9981 1
 8381  9983  9981 1
 8382  9984  9981 1
 8383  9985  9984 1
 8384  9987  9986 1
 8385  9988  9987 1
 8386  9989  9987 1
 8387  9990  9987 1
 8388  9991  9990 1
 8389  9993  9992 1
 8390  9994  9993 1
 8391  9995  9993 1
 8392  9996  9993 1
 8393  9997  9996 1
 8394  9999  9998 1
 8395 10000  9999 1
 8396 10001  9999 1
 8397 10002  9999 1
 8398 10003 10002 1
 8399 10005 10004 1
 8400 10006 10005 1
 8401 10007 10005 1
 8402 10008 10005 1
 8403 10009 10008 1
 8404 10011 10010 1
 8405 10012 10011 1
 8406 10013 10011 1
 8407 10014 10011 1
 8408 10015 10014 1
 8409 10017 10016 1
 8410 10018 10017 1
 8411 10019 10017 1
 8412 10020 10017 1
 8413 10021 10020 1
 8414 10023 10022 1
 8415 10024 10023 1
 8416 10025 10023 1
 8417 10026 10023 1
 8418 10027 10026 1
 8419 10029 10028 1
 8420 10030 10029 1
 8421 10031 10029 1
 8422 10032 10029 1
 8423 10033 10032 1
 8424 10035 10034 1
 8425 10036 10035 1
 8426 10037 10035 1
 8427 10038 10035 1
 8428 10039 10038 1
 8429 10041 10040 1
 8430 10042 10041 1
 8431 10043 10041 1
 8432 10044 10041 1
 8433 10045 10044 1
 8434 10047 10046 1
 8435 10048 10047 1
 8436 10049 10047 1
 8437 10050 10047 1
 8438 10051 10050 1
 8439 10053 10052 1
 8440 10054 10053 1
 8441 10055 10053 1
 8442 10056 10053 1
 8443 10057 10056 1
 8444 10059 10058 1
 8445 10060 10059 1
 8446 10061 10059 1
 8447 10062 10059 1
 8448 10063 10062 1
 8449 10065 10064 1
 8450 10066 10065 1
 8451 10067 10065 1
 8452 10068 10065 1
 8453 10069 10068 1
 8454 10071 10070 1
 8455 10072 10071 1
 8456 10073 10071 1
 8457 10074 10071 1
 8458 10075 10074 1
 8459 10077 10076 1
 8460 10078 10077 1
 8461 10079 10077 1
 8462 10080 10077 1
 8463 10081 10080 1
 8464 10083 10082 1
 8465 10084 10083 1
 8466 10085 10083 1
 8467 10086 10083 1
 8468 10087 10086 1
 8469 10089 10088 1
 8470 10090 10089 1
 8471 10091 10089 1
 8472 10092 10089 1
 8473 10093 10092 1
 8474 10095 10094 1
 8475 10096 10095 1
 8476 10097 10095 1
 8477 10098 10095 1
 8478 10099 10098 1
 8479 10101 10100 1
 8480 10102 10101 1
 8481 10103 10101 1
 8482 10104 10101 1
 8483 10105 10104 1
 8484 10107 10106 1
 8485 10108 10107 1
 8486 10109 10107 1
 8487 10110 10107 1
 8488 10111 10110 1
 8489 10113 10112 1
 8490 10114 10113 1
 8491 10115 10113 1
 8492 10116 10113 1
 8493 10117 10116 1
 8494 10119 10118 1
 8495 10120 10119 1
 8496 10121 10119 1
 8497 10122 10119 1
 8498 10123 10122 1
 8499 10125 10124 1
 8500 10126 10125 1
 8501 10127 10125 1
 8502 10128 10125 1
 8503 10129 10128 1
 8504 10131 10130 1
 8505 10132 10131 1
 8506 10133 10131 1
 8507 10134 10131 1
 8508 10135 10134 1
 8509 10137 10136 1
 8510 10138 10137 1
 8511 10139 10137 1
 8512 10140 10137 1
 8513 10141 10140 1
 8514 10143 10142 1
 8515 10144 10143 1
 8516 10145 10143 1
 8517 10146 10143 1
 8518 10147 10146 1
 8519 10149 10148 1
 8520 10150 10149 1
 8521 10151 10149 1
 8522 10152 10149 1
 8523 10153 10152 1
 8524 10155 10154 1
 8525 10156 10155 1
 8526 10157 10155 1
 8527 10158 10155 1
 8528 10159 10158 1
 8529 10161 10160 1
 8530 10162 10161 1
 8531 10163 10161 1
 8532 10164 10161 1
 8533 10165 10164 1
 8534 10167 10166 1
 8535 10168 10167 1
 8536 10169 10167 1
 8537 10170 10167 1
 8538 10171 10170 1
 8539 10173 10172 1
 8540 10174 10173 1
 8541 10175 10173 1
 8542 10176 10173 1
 8543 10177 10176 1
 8544 10179 10178 1
 8545 10180 10179 1
 8546 10181 10179 1
 8547 10182 10179 1
 8548 10183 10182 1
 8549 10185 10184 1
 8550 10186 10185 1
 8551 10187 10185 1
 8552 10188 10185 1
 8553 10189 10188 1
 8554 10191 10190 1
 8555 10192 10191 1
 8556 10193 10191 1
 8557 10194 10191 1
 8558 10195 10194 1
 8559 10197 10196 1
 8560 10198 10197 1
 8561 10199 10197 1
 8562 10200 10197 1
 8563 10201 10200 1
 8564 10203 10202 1
 8565 10204 10203 1
 8566 10205 10203 1
 8567 10206 10203 1
 8568 10207 10206 1
 8569 10209 10208 1
 8570 10210 10209 1
 8571 10211 10209 1
 8572 10212 10209 1
 8573 10213 10212 1
 8574 10215 10214 1
 8575 10216 10215 1
 8576 10217 10215 1
 8577 10218 10215 1
 8578 10219 10218 1
 8579 10221 10220 1
 8580 10222 10221 1
 8581 10223 10221 1
 8582 10224 10221 1
 8583 10225 10224 1
 8584 10227 10226 1
 8585 10228 10227 1
 8586 10229 10227 1
 8587 10230 10227 1
 8588 10231 10230 1
 8589 10233 10232 1
 8590 10234 10233 1
 8591 10235 10233 1
 8592 10236 10233 1
 8593 10237 10236 1
 8594 10239 10238 1
 8595 10240 10239 1
 8596 10241 10239 1
 8597 10242 10239 1
 8598 10243 10242 1
 8599 10245 10244 1
 8600 10246 10245 1
 8601 10247 10245 1
 8602 10248 10245 1
 8603 10249 10248 1
 8604 10251 10250 1
 8605 10252 10251 1
 8606 10253 10251 1
 8607 10254 10251 1
 8608 10255 10254 1
 8609 10257 10256 1
 8610 10258 10257 1
 8611 10259 10257 1
 8612 10260 10257 1
 8613 10261 10260 1
 8614 10263 10262 1
 8615 10264 10263 1
 8616 10265 10263 1
 8617 10266 10263 1
 8618 10267 10266 1
 8619 10269 10268 1
 8620 10270 10269 1
 8621 10271 10269 1
 8622 10272 10269 1
 8623 10273 10272 1
 8624 10275 10274 1
 8625 10276 10275 1
 8626 10277 10275 1
 8627 10278 10275 1
 8628 10279 10278 1
 8629 10281 10280 1
 8630 10282 10281 1
 8631 10283 10281 1
 8632 10284 10281 1
 8633 10285 10284 1
 8634 10287 10286 1
 8635 10288 10287 1
 8636 10289 10287 1
 8637 10290 10287 1
 8638 10291 10290 1
 8639 10293 10292 1
 8640 10294 10293 1
 8641 10295 10293 1
 8642 10296 10293 1
 8643 10297 10296 1
 8644 10299 10298 1
 8645 10300 10299 1
 8646 10301 10299 1
 8647 10302 10299 1
 8648 10303 10302 1
 8649 10305 10304 1
 8650 10306 10305 1
 8651 10307 10305 1
 8652 10308 10305 1
 8653 10309 10308 1
 8654 10311 10310 1
 8655 10312 10311 1
 8656 10313 10311 1
 8657 10314 10311 1
 8658 10315 10314 1
 8659 10317 10316 1
 8660 10318 10317 1
 8661 10319 10317 1
 8662 10320 10317 1
 8663 10321 10320 1
 8664 10323 10322 1
 8665 10324 10323 1
 8666 10325 10323 1
 8667 10326 10323 1
 8668 10327 10326 1
 8669 10329 10328 1
 8670 10330 10329 1
 8671 10331 10329 1
 8672 10332 10329 1
 8673 10333 10332 1
 8674 10335 10334 1
 8675 10336 10335 1
 8676 10337 10335 1
 8677 10338 10335 1
 8678 10339 10338 1
 8679 10341 10340 1
 8680 10342 10341 1
 8681 10343 10341 1
 8682 10344 10341 1
 8683 10345 10344 1
 8684 10347 10346 1
 8685 10348 10347 1
 8686 10349 10347 1
 8687 10350 10347 1
 8688 10351 10350 1
 8689 10353 10352 1
 8690 10354 10353 1
 8691 10355 10353 1
 8692 10356 10353 1
 8693 10357 10356 1
 8694 10359 10358 1
 8695 10360 10359 1
 8696 10361 10359 1
 8697 10362 10359 1
 8698 10363 10362 1
 8699 10365 10364 1
 8700 10366 10365 1
 8701 10367 10365 1
 8702 10368 10365 1
 8703 10369 10368 1
 8704 10371 10370 1
 8705 10372 10371 1
 8706 10373 10371 1
 8707 10374 10371 1
 8708 10375 10374 1
 8709 10377 10376 1
 8710 10378 10377 1
 8711 10379 10377 1
 8712 10380 10377 1
 8713 10381 10380 1
 8714 10383 10382 1
 8715 10384 10383 1
 8716 10385 10383 1
 8717 10386 10383 1
 8718 10387 10386 1
 8719 10389 10388 1
 8720 10390 10389 1
 8721 10391 10389 1
 8722 10392 10389 1
 8723 10393 10392 1
 8724 10395 10394 1
 8725 10396 10395 1
 8726 10397 10395 1
 8727 10398 10395 1
 8728 10399 10398 1
 8729 10401 10400 1
 8730 10402 10401 1
 8731 10403 10401 1
 8732 10404 10401 1
 8733 10405 10404 1
 8734 10407 10406 1
 8735 10408 10407 1
 8736 10409 10407 1
 8737 10410 10407 1
 8738 10411 10410 1
 8739 10413 10412 1
 8740 10414 10413 1
 8741 10415 10413 1
 8742 10416 10413 1
 8743 10417 10416 1
 8744 10419 10418 1
 8745 10420 10419 1
 8746 10421 10419 1
 8747 10422 10419 1
 8748 10423 10422 1
 8749 10425 10424 1
 8750 10426 10425 1
 8751 10427 10425 1
 8752 10428 10425 1
 8753 10429 10428 1
 8754 10431 10430 1
 8755 10432 10431 1
 8756 10433 10431 1
 8757 10434 10431 1
 8758 10435 10434 1
 8759 10437 10436 1
 8760 10438 10437 1
 8761 10439 10437 1
 8762 10440 10437 1
 8763 10441 10440 1
 8764 10443 10442 1
 8765 10444 10443 1
 8766 10445 10443 1
 8767 10446 10443 1
 8768 10447 10446 1
 8769 10449 10448 1
 8770 10450 10449 1
 8771 10451 10449 1
 8772 10452 10449 1
 8773 10453 10452 1
 8774 10455 10454 1
 8775 10456 10455 1
 8776 10457 10455 1
 8777 10458 10455 1
 8778 10459 10458 1
 8779 10461 10460 1
 8780 10462 10461 1
 8781 10463 10461 1
 8782 10464 10461 1
 8783 10465 10464 1
 8784 10467 10466 1
 8785 10468 10467 1
 8786 10469 10467 1
 8787 10470 10467 1
 8788 10471 10470 1
 8789 10473 10472 1
 8790 10474 10473 1
 8791 10475 10473 1
 8792 10476 10473 1
 8793 10477 10476 1
 8794 10479 10478 1
 8795 10480 10479 1
 8796 10481 10479 1
 8797 10482 10479 1
 8798 10483 10482 1
 8799 10485 10484 1
 8800 10486 10485 1
 8801 10487 10485 1
 8802 10488 10485 1
 8803 10489 10488 1
 8804 10491 10490 1
 8805 10492 10491 1
 8806 10493 10491 1
 8807 10494 10491 1
 8808 10495 10494 1
 8809 10497 10496 1
 8810 10498 10497 1
 8811 10499 10497 1
 8812 10500 10497 1
 8813 10501 10500 1
 8814 10503 10502 1
 8815 10504 10503 1
 8816 10505 10503 1
 8817 10506 10503 1
 8818 10507 10506 1
 8819 10509 10508 1
 8820 10510 10509 1
 8821 10511 10509 1
 8822 10512 10509 1
 8823 10513 10512 1
 8824 10515 10514 1
 8825 10516 10515 1
 8826 10517 10515 1
 8827 10518 10515 1
 8828 10519 10518 1
 8829 10521 10520 1
 8830 10522 10521 1
 8831 10523 10521 1
 8832 10524 10521 1
 8833 10525 10524 1
 8834 10527 10526 1
 8835 10528 10527 1
 8836 10529 10527 1
 8837 10530 10527 1
 8838 10531 10530 1
 8839 10533 10532 1
 8840 10534 10533 1
 8841 10535 10533 1
 8842 10536 10533 1
 8843 10537 10536 1
 8844 10539 10538 1
 8845 10540 10539 1
 8846 10541 10539 1
 8847 10542 10539 1
 8848 10543 10542 1
 8849 10545 10544 1
 8850 10546 10545 1
 8851 10547 10545 1
 8852 10548 10545 1
 8853 10549 10548 1
 8854 10551 10550 1
 8855 10552 10551 1
 8856 10553 10551 1
 8857 10554 10551 1
 8858 10555 10554 1
 8859 10557 10556 1
 8860 10558 10557 1
 8861 10559 10557 1
 8862 10560 10557 1
 8863 10561 10560 1
 8864 10563 10562 1
 8865 10564 10563 1
 8866 10565 10563 1
 8867 10566 10563 1
 8868 10567 10566 1
 8869 10569 10568 1
 8870 10570 10569 1
 8871 10571 10569 1
 8872 10572 10569 1
 8873 10573 10572 1
 8874 10575 10574 1
 8875 10576 10575 1
 8876 10577 10575 1
 8877 10578 10575 1
 8878 10579 10578 1
 8879 10581 10580 1
 8880 10582 10581 1
 8881 10583 10581 1
 8882 10584 10581 1
 8883 10585 10584 1
 8884 10587 10586 1
 8885 10588 10587 1
 8886 10589 10587 1
 8887 10590 10587 1
 8888 10591 10590 1
 8889 10593 10592 1
 8890 10594 10593 1
 8891 10595 10593 1
 8892 10596 10593 1
 8893 10597 10596 1
 8894 10599 10598 1
 8895 10600 10599 1
 8896 10601 10599 1
 8897 10602 10599 1
 8898 10603 10602 1
 8899 10605 10604 1
 8900 10606 10605 1
 8901 10607 10605 1
 8902 10608 10605 1
 8903 10609 10608 1
 8904 10611 10610 1
 8905 10612 10611 1
 8906 10613 10611 1
 8907 10614 10611 1
 8908 10615 10614 1
 8909 10617 10616 1
 8910 10618 10617 1
 8911 10619 10617 1
 8912 10620 10617 1
 8913 10621 10620 1
 8914 10623 10622 1
 8915 10624 10623 1
 8916 10625 10623 1
 8917 10626 10623 1
 8918 10627 10626 1
 8919 10629 10628 1
 8920 10630 10629 1
 8921 10631 10629 1
 8922 10632 10629 1
 8923 10633 10632 1
 8924 10635 10634 1
 8925 10636 10635 1
 8926 10637 10635 1
 8927 10638 10635 1
 8928 10639 10638 1
 8929 10641 10640 1
 8930 10642 10641 1
 8931 10643 10641 1
 8932 10644 10641 1
 8933 10645 10644 1
 8934 10647 10646 1
 8935 10648 10647 1
 8936 10649 10647 1
 8937 10650 10647 1
 8938 10651 10650 1
 8939 10653 10652 1
 8940 10654 10653 1
 8941 10655 10653 1
 8942 10656 10653 1
 8943 10657 10656 1
 8944 10659 10658 1
 8945 10660 10659 1
 8946 10661 10659 1
 8947 10662 10659 1
 8948 10663 10662 1
 8949 10665 10664 1
 8950 10666 10665 1
 8951 10667 10665 1
 8952 10668 10665 1
 8953 10669 10668 1
 8954 10671 10670 1
 8955 10672 10671 1
 8956 10673 10671 1
 8957 10674 10671 1
 8958 10675 10674 1
 8959 10677 10676 1
 8960 10678 10677 1
 8961 10679 10677 1
 8962 10680 10677 1
 8963 10681 10680 1
 8964 10683 10682 1
 8965 10684 10683 1
 8966 10685 10683 1
 8967 10686 10683 1
 8968 10687 10686 1
 8969 10689 10688 1
 8970 10690 10689 1
 8971 10691 10689 1
 8972 10692 10689 1
 8973 10693 10692 1
 8974 10695 10694 1
 8975 10696 10695 1
 8976 10697 10695 1
 8977 10698 10695 1
 8978 10699 10698 1
 8979 10701 10700 1
 8980 10702 10701 1
 8981 10703 10701 1
 8982 10704 10701 1
 8983 10705 10704 1
 8984 10707 10706 1
 8985 10708 10707 1
 8986 10709 10707 1
 8987 10710 10707 1
 8988 10711 10710 1
 8989 10713 10712 1
 8990 10714 10713 1
 8991 10715 10713 1
 8992 10716 10713 1
 8993 10717 10716 1
 8994 10719 10718 1
 8995 10720 10719 1
 8996 10721 10719 1
 8997 10722 10719 1
 8998 10723 10722 1
 8999 10725 10724 1
 9000 10726 10725 1
 9001 10727 10725 1
 9002 10728 10725 1
 9003 10729 10728 1
 9004 10731 10730 1
 9005 10732 10731 1
 9006 10733 10731 1
 9007 10734 10731 1
 9008 10735 10734 1
 9009 10737 10736 1
 9010 10738 10737 1
 9011 10739 10737 1
 9012 10740 10737 1
 9013 10741 10740 1
 9014 10743 10742 1
 9015 10744 10743 1
 9016 10745 10743 1
 9017 10746 10743 1
 9018 10747 10746 1
 9019 10749 10748 1
 9020 10750 10749 1
 9021 10751 10749 1
 9022 10752 10749 1
 9023 10753 10752 1
 9024 10755 10754 1
 9025 10756 10755 1
 9026 10757 10755 1
 9027 10758 10755 1
 9028 10759 10758 1
 9029 10761 10760 1
 9030 10762 10761 1
 9031 10763 10761 1
 9032 10764 10761 1
 9033 10765 10764 1
 9034 10767 10766 1
 9035 10768 10767 1
 9036 10769 10767 1
 9037 10770 10767 1
 9038 10771 10770 1
 9039 10773 10772 1
 9040 10774 10773 1
 9041 10775 10773 1
 9042 10776 10773 1
 9043 10777 10776 1
 9044 10779 10778 1
 9045 10780 10779 1
 9046 10781 10779 1
 9047 10782 10779 1
 9048 10783 10782 1
 9049 10785 10784 1
 9050 10786 10785 1
 9051 10787 10785 1
 9052 10788 10785 1
 9053 10789 10788 1
 9054 10791 10790 1
 9055 10792 10791 1
 9056 10793 10791 1
 9057 10794 10791 1
 9058 10795 10794 1
 9059 10797 10796 1
 9060 10798 10797 1
 9061 10799 10797 1
 9062 10800 10797 1
 9063 10801 10800 1
 9064 10803 10802 1
 9065 10804 10803 1
 9066 10805 10803 1
 9067 10806 10803 1
 9068 10807 10806 1
 9069 10809 10808 1
 9070 10810 10809 1
 9071 10811 10809 1
 9072 10812 10809 1
 9073 10813 10812 1
 9074 10815 10814 1
 9075 10816 10815 1
 9076 10817 10815 1
 9077 10818 10815 1
 9078 10819 10818 1
 9079 10821 10820 1
 9080 10822 10821 1
 9081 10823 10821 1
 9082 10824 10821 1
 9083 10825 10824 1
 9084 10827 10826 1
 9085 10828 10827 1
 9086 10829 10827 1
 9087 10830 10827 1
 9088 10831 10830 1
 9089 10833 10832 1
 9090 10834 10833 1
 9091 10835 10833 1
 9092 10836 10833 1
 9093 10837 10836 1
 9094 10839 10838 1
 9095 10840 10839 1
 9096 10841 10839 1
 9097 10842 10839 1
 9098 10843 10842 1
 9099 10845 10844 1
 9100 10846 10845 1
 9101 10847 10845 1
 9102 10848 10845 1
 9103 10849 10848 1
 9104 10851 10850 1
 9105 10852 10851 1
 9106 10853 10851 1
 9107 10854 10851 1
 9108 10855 10854 1
 9109 10857 10856 1
 9110 10858 10857 1
 9111 10859 10857 1
 9112 10860 10857 1
 9113 10861 10860 1
 9114 10863 10862 1
 9115 10864 10863 1
 9116 10865 10863 1
 9117 10866 10863 1
 9118 10867 10866 1
 9119 10869 10868 1
 9120 10870 10869 1
 9121 10871 10869 1
 9122 10872 10869 1
 9123 10873 10872 1
 9124 10875 10874 1
 9125 10876 10875 1
 9126 10877 10875 1
 9127 10878 10875 1
 9128 10879 10878 1
 9129 10881 10880 1
 9130 10882 10881 1
 9131 10883 10881 1
 9132 10884 10881 1
 9133 10885 10884 1
 9134 10887 10886 1
 9135 10888 10887 1
 9136 10889 10887 1
 9137 10890 10887 1
 9138 10891 10890 1
 9139 10893 10892 1
 9140 10894 10893 1
 9141 10895 10893 1
 9142 10896 10893 1
 9143 10897 10896 1
 9144 10899 10898 1
 9145 10900 10899 1
 9146 10901 10899 1
 9147 10902 10899 1
 9148 10903 10902 1
 9149 10905 10904 1
 9150 10906 10905 1
 9151 10907 10905 1
 9152 10908 10905 1
 9153 10909 10908 1
 9154 10911 10910 1
 9155 10912 10911 1
 9156 10913 10911 1
 9157 10914 10911 1
 9158 10915 10914 1
 9159 10917 10916 1
 9160 10918 10917 1
 9161 10919 10917 1
 9162 10920 10917 1
 9163 10921 10920 1
 9164 10923 10922 1
 9165 10924 10923 1
 9166 10925 10923 1
 9167 10926 10923 1
 9168 10927 10926 1
 9169 10929 10928 1
 9170 10930 10929 1
 9171 10931 10929 1
 9172 10932 10929 1
 9173 10933 10932 1
 9174 10935 10934 1
 9175 10936 10935 1
 9176 10937 10935 1
 9177 10938 10935 1
 9178 10939 10938 1
 9179 10941 10940 1
 9180 10942 10941 1
 9181 10943 10941 1
 9182 10944 10941 1
 9183 10945 10944 1
 9184 10947 10946 1
 9185 10948 10947 1
 9186 10949 10947 1
 9187 10950 10947 1
 9188 10951 10950 1
 9189 10953 10952 1
 9190 10954 10953 1
 9191 10955 10953 1
 9192 10956 10953 1
 9193 10957 10956 1
 9194 10959 10958 1
 9195 10960 10959 1
 9196 10961 10959 1
 9197 10962 10959 1
 9198 10963 10962 1
 9199 10965 10964 1
 9200 10966 10965 1
 9201 10967 10965 1
 9202 10968 10965 1
 9203 10969 10968 1
 9204 10971 10970 1
 9205 10972 10971 1
 9206 10973 10971 1
 9207 10974 10971 1
 9208 10975 10974 1
 9209 10977 10976 1
 9210 10978 10977 1
 9211 10979 10977 1
 9212 10980 10977 1
 9213 10981 10980 1
 9214 10983 10982 1
 9215 10984 10983 1
 9216 10985 10983 1
 9217 10986 10983 1
 9218 10987 10986 1
 9219 10989 10988 1
 9220 10990 10989 1
 9221 10991 10989 1
 9222 10992 10989 1
 9223 10993 10992 1
 9224 10995 10994 1
 9225 10996 10995 1
 9226 10997 10995 1
 9227 10998 10995 1
 9228 10999 10998 1
 9229 11001 11000 1
 9230 11002 11001 1
 9231 11003 11001 1
 9232 11004 11001 1
 9233 11005 11004 1
 9234 11007 11006 1
 9235 11008 11007 1
 9236 11009 11007 1
 9237 11010 11007 1
 9238 11011 11010 1
 9239 11013 11012 1
 9240 11014 11013 1
 9241 11015 11013 1
 9242 11016 11013 1
 9243 11017 11016 1
 9244 11019 11018 1
 9245 11020 11019 1
 9246 11021 11019 1
 9247 11022 11019 1
 9248 11023 11022 1
 9249 11025 11024 1
 9250 11026 11025 1
 9251 11027 11025 1
 9252 11028 11025 1
 9253 11029 11028 1
 9254 11031 11030 1
 9255 11032 11031 1
 9256 11033 11031 1
 9257 11034 11031 1
 9258 11035 11034 1
 9259 11037 11036 1
 9260 11038 11037 1
 9261 11039 11037 1
 9262 11040 11037 1
 9263 11041 11040 1
 9264 11043 11042 1
 9265 11044 11043 1
 9266 11045 11043 1
 9267 11046 11043 1
 9268 11047 11046 1
 9269 11049 11048 1
 9270 11050 11049 1
 9271 11051 11049 1
 9272 11052 11049 1
 9273 11053 11052 1
 9274 11055 11054 1
 9275 11056 11055 1
 9276 11057 11055 1
 9277 11058 11055 1
 9278 11059 11058 1
 9279 11061 11060 1
 9280 11062 11061 1
 9281 11063 11061 1
 9282 11064 11061 1
 9283 11065 11064 1
 9284 11067 11066 1
 9285 11068 11067 1
 9286 11069 11067 1
 9287 11070 11067 1
 9288 11071 11070 1
 9289 11073 11072 1
 9290 11074 11073 1
 9291 11075 11073 1
 9292 11076 11073 1
 9293 11077 11076 1
 9294 11079 11078 1
 9295 11080 11079 1
 9296 11081 11079 1
 9297 11082 11079 1
 9298 11083 11082 1
 9299 11085 11084 1
 9300 11086 11085 1
 9301 11087 11085 1
 9302 11088 11085 1
 9303 11089 11088 1
 9304 11091 11090 1
 9305 11092 11091 1
 9306 11093 11091 1
 9307 11094 11091 1
 9308 11095 11094 1
 9309 11097 11096 1
 9310 11098 11097 1
 9311 11099 11097 1
 9312 11100 11097 1
 9313 11101 11100 1
 9314 11103 11102 1
 9315 11104 11103 1
 9316 11105 11103 1
 9317 11106 11103 1
 9318 11107 11106 1
 9319 11109 11108 1
 9320 11110 11109 1
 9321 11111 11109 1
 9322 11112 11109 1
 9323 11113 11112 1
 9324 11115 11114 1
 9325 11116 11115 1
 9326 11117 11115 1
 9327 11118 11115 1
 9328 11119 11118 1
 9329 11121 11120 1
 9330 11122 11121 1
 9331 11123 11121 1
 9332 11124 11121 1
 9333 11125 11124 1
 9334 11127 11126 1
 9335 11128 11127 1
 9336 11129 11127 1
 9337 11130 11127 1
 9338 11131 11130 1
 9339 11133 11132 1
 9340 11134 11133 1
 9341 11135 11133 1
 9342 11136 11133 1
 9343 11137 11136 1
 9344 11139 11138 1
 9345 11140 11139 1
 9346 11141 11139 1
 9347 11142 11139 1
 9348 11143 11142 1
 9349 11145 11144 1
 9350 11146 11145 1
 9351 11147 11145 1
 9352 11148 11145 1
 9353 11149 11148 1
 9354 11151 11150 1
 9355 11152 11151 1
 9356 11153 11151 1
 9357 11154 11151 1
 9358 11155 11154 1
 9359 11157 11156 1
 9360 11158 11157 1
 9361 11159 11157 1
 9362 11160 11157 1
 9363 11161 11160 1
 9364 11163 11162 1
 9365 11164 11163 1
 9366 11165 11163 1
 9367 11166 11163 1
 9368 11167 11166 1
 9369 11169 11168 1
 9370 11170 11169 1
 9371 11171 11169 1
 9372 11172 11169 1
 9373 11173 11172 1
 9374 11175 11174 1
 9375 11176 11175 1
 9376 11177 11175 1
 9377 11178 11175 1
 9378 11179 11178 1
 9379 11181 11180 1
 9380 11182 11181 1
 9381 11183 11181 1
 9382 11184 11181 1
 9383 11185 11184 1
 9384 11187 11186 1
 9385 11188 11187 1
 9386 11189 11187 1
 9387 11190 11187 1
 9388 11191 11190 1
 9389 11193 11192 1
 9390 11194 11193 1
 9391 11195 11193 1
 9392 11196 11193 1
 9393 11197 11196 1
 9394 11199 11198 1
 9395 11200 11199 1
 9396 11201 11199 1
 9397 11202 11199 1
 9398 11203 11202 1
 9399 11205 11204 1
 9400 11206 11205 1
 9401 11207 11205 1
 9402 11208 11205 1
 9403 11209 11208 1
 9404 11211 11210 1
 9405 11212 11211 1
 9406 11213 11211 1
 9407 11214 11211 1
 9408 11215 11214 1
 9409 11217 11216 1
 9410 11218 11217 1
 9411 11219 11217 1
 9412 11220 11217 1
 9413 11221 11220 1
 9414 11223 11222 1
 9415 11224 11223 1
 9416 11225 11223 1
 9417 11226 11223 1
 9418 11227 11226 1
 9419 11229 11228 1
 9420 11230 11229 1
 9421 11231 11229 1
 9422 11232 11229 1
 9423 11233 11232 1
 9424 11235 11234 1
 9425 11236 11235 1
 9426 11237 11235 1
 9427 11238 11235 1
 9428 11239 11238 1
 9429 11241 11240 1
 9430 11242 11241 1
 9431 11243 11241 1
 9432 11244 11241 1
 9433 11245 11244 1
 9434 11247 11246 1
 9435 11248 11247 1
 9436 11249 11247 1
 9437 11250 11247 1
 9438 11251 11250 1
 9439 11253 11252 1
 9440 11254 11253 1
 9441 11255 11253 1
 9442 11256 11253 1
 9443 11257 11256 1
 9444 11259 11258 1
 9445 11260 11259 1
 9446 11261 11259 1
 9447 11262 11259 1
 9448 11263 11262 1
 9449 11265 11264 1
 9450 11266 11265 1
 9451 11267 11265 1
 9452 11268 11265 1
 9453 11269 11268 1
 9454 11271 11270 1
 9455 11272 11271 1
 9456 11273 11271 1
 9457 11274 11271 1
 9458 11275 11274 1
 9459 11277 11276 1
 9460 11278 11277 1
 9461 11279 11277 1
 9462 11280 11277 1
 9463 11281 11280 1
 9464 11283 11282 1
 9465 11284 11283 1
 9466 11285 11283 1
 9467 11286 11283 1
 9468 11287 11286 1
 9469 11289 11288 1
 9470 11290 11289 1
 9471 11291 11289 1
 9472 11292 11289 1
 9473 11293 11292 1
 9474 11295 11294 1
 9475 11296 11295 1
 9476 11297 11295 1
 9477 11298 11295 1
 9478 11299 11298 1
 9479 11301 11300 1
 9480 11302 11301 1
 9481 11303 11301 1
 9482 11304 11301 1
 9483 11305 11304 1
 9484 11307 11306 1
 9485 11308 11307 1
 9486 11309 11307 1
 9487 11310 11307 1
 9488 11311 11310 1
 9489 11313 11312 1
 9490 11314 11313 1
 9491 11315 11313 1
 9492 11316 11313 1
 9493 11317 11316 1
 9494 11319 11318 1
 9495 11320 11319 1
 9496 11321 11319 1
 9497 11322 11319 1
 9498 11323 11322 1
 9499 11325 11324 1
 9500 11326 11325 1
 9501 11327 11325 1
 9502 11328 11325 1
 9503 11329 11328 1
 9504 11331 11330 1
 9505 11332 11331 1
 9506 11333 11331 1
 9507 11334 11331 1
 9508 11335 11334 1
 9509 11337 11336 1
 9510 11338 11337 1
 9511 11339 11337 1
 9512 11340 11337 1
 9513 11341 11340 1
 9514 11343 11342 1
 9515 11344 11343 1
 9516 11345 11343 1
 9517 11346 11343 1
 9518 11347 11346 1
 9519 11349 11348 1
 9520 11350 11349 1
 9521 11351 11349 1
 9522 11352 11349 1
 9523 11353 11352 1
 9524 11355 11354 1
 9525 11356 11355 1
 9526 11357 11355 1
 9527 11358 11355 1
 9528 11359 11358 1
 9529 11361 11360 1
 9530 11362 11361 1
 9531 11363 11361 1
 9532 11364 11361 1
 9533 11365 11364 1
 9534 11367 11366 1
 9535 11368 11367 1
 9536 11369 11367 1
 9537 11370 11367 1
 9538 11371 11370 1
 9539 11373 11372 1
 9540 11374 11373 1
 9541 11375 11373 1
 9542 11376 11373 1
 9543 11377 11376 1
 9544 11379 11378 1
 9545 11380 11379 1
 9546 11381 11379 1
 9547 11382 11379 1
 9548 11383 11382 1
 9549 11385 11384 1
 9550 11386 11385 1
 9551 11387 11385 1
 9552 11388 11385 1
 9553 11389 11388 1
 9554 11391 11390 1
 9555 11392 11391 1
 9556 11393 11391 1
 9557 11394 11391 1
 9558 11395 11394 1
 9559 11397 11396 1
 9560 11398 11397 1
 9561 11399 11397 1
 9562 11400 11397 1
 9563 11401 11400 1
 9564 11403 11402 1
 9565 11404 11403 1
 9566 11405 11403 1
 9567 11406 11403 1
 9568 11407 11406 1
 9569 11409 11408 1
 9570 11410 11409 1
 9571 11411 11409 1
 9572 11412 11409 1
 9573 11413 11412 1
 9574 11415 11414 1
 9575 11416 11415 1
 9576 11417 11415 1
 9577 11418 11415 1
 9578 11419 11418 1
 9579 11421 11420 1
 9580 11422 11421 1
 9581 11423 11421 1
 9582 11424 11421 1
 9583 11425 11424 1
 9584 11427 11426 1
 9585 11428 11427 1
 9586 11429 11427 1
 9587 11430 11427 1
 9588 11431 11430 1
 9589 11433 11432 1
 9590 11434 11433 1
 9591 11435 11433 1
 9592 11436 11433 1
 9593 11437 11436 1
 9594 11439 11438 1
 9595 11440 11439 1
 9596 11441 11439 1
 9597 11442 11439 1
 9598 11443 11442 1
 9599 11445 11444 1
 9600 11446 11445 1
 9601 11447 11445 1
 9602 11448 11445 1
 9603 11449 11448 1
 9604 11451 11450 1
 9605 11452 11451 1
 9606 11453 11451 1
 9607 11454 11451 1
 9608 11455 11454 1
 9609 11457 11456 1
 9610 11458 11457 1
 9611 11459 11457 1
 9612 11460 11457 1
 9613 11461 11460 1
 9614 11463 11462 1
 9615 11464 11463 1
 9616 11465 11463 1
 9617 11466 11463 1
 9618 11467 11466 1
 9619 11469 11468 1
 9620 11470 11469 1
 9621 11471 11469 1
 9622 11472 11469 1
 9623 11473 11472 1
 9624 11475 11474 1
 9625 11476 11475 1
 9626 11477 11475 1
 9627 11478 11475 1
 9628 11479 11478 1
 9629 11481 11480 1
 9630 11482 11481 1
 9631 11483 11481 1
 9632 11484 11481 1
 9633 11485 11484 1
 9634 11487 11486 1
 9635 11488 11487 1
 9636 11489 11487 1
 9637 11490 11487 1
 9638 11491 11490 1
 9639 11493 11492 1
 9640 11494 11493 1
 9641 11495 11493 1
 9642 11496 11493 1
 9643 11497 11496 1
 9644 11499 11498 1
 9645 11500 11499 1
 9646 11501 11499 1
 9647 11502 11499 1
 9648 11503 11502 1
 9649 11505 11504 1
 9650 11506 11505 1
 9651 11507 11505 1
 9652 11508 11505 1
 9653 11509 11508 1
 9654 11511 11510 1
 9655 11512 11511 1
 9656 11513 11511 1
 9657 11514 11511 1
 9658 11515 11514 1
 9659 11517 11516 1
 9660 11518 11517 1
 9661 11519 11517 1
 9662 11520 11517 1
 9663 11521 11520 1
 9664 11523 11522 1
 9665 11524 11523 1
 9666 11525 11523 1
 9667 11526 11523 1
 9668 11527 11526 1
 9669 11529 11528 1
 9670 11530 11529 1
 9671 11531 11529 1
 9672 11532 11529 1
 9673 11533 11532 1
 9674 11535 11534 1
 9675 11536 11535 1
 9676 11537 11535 1
 9677 11538 11535 1
 9678 11539 11538 1
 9679 11541 11540 1
 9680 11542 11541 1
 9681 11543 11541 1
 9682 11544 11541 1
 9683 11545 11544 1
 9684 11547 11546 1
 9685 11548 11547 1
 9686 11549 11547 1
 9687 11550 11547 1
 9688 11551 11550 1
 9689 11553 11552 1
 9690 11554 11553 1
 9691 11555 11553 1
 9692 11556 11553 1
 9693 11557 11556 1
 9694 11559 11558 1
 9695 11560 11559 1
 9696 11561 11559 1
 9697 11562 11559 1
 9698 11563 11562 1
 9699 11565 11564 1
 9700 11566 11565 1
 9701 11567 11565 1
 9702 11568 11565 1
 9703 11569 11568 1
 9704 11571 11570 1
 9705 11572 11571 1
 9706 11573 11571 1
 9707 11574 11571 1
 9708 11575 11574 1
 9709 11577 11576 1
 9710 11578 11577 1
 9711 11579 11577 1
 9712 11580 11577 1
 9713 11581 11580 1
 9714 11583 11582 1
 9715 11584 11583 1
 9716 11585 11583 1
 9717 11586 11583 1
 9718 11587 11586 1
 9719 11589 11588 1
 9720 11590 11589 1
 9721 11591 11589 1
 9722 11592 11589 1
 9723 11593 11592 1
 9724 11595 11594 1
 9725 11596 11595 1
 9726 11597 11595 1
 9727 11598 11595 1
 9728 11599 11598 1
 9729 11601 11600 1
 9730 11602 11601 1
 9731 11603 11601 1
 9732 11604 11601 1
 9733 11605 11604 1
 9734 11607 11606 1
 9735 11608 11607 1
 9736 11609 11607 1
 9737 11610 11607 1
 9738 11611 11610 1
 9739 11613 11612 1
 9740 11614 11613 1
 9741 11615 11613 1
 9742 11616 11613 1
 9743 11617 11616 1
 9744 11619 11618 1
 9745 11620 11619 1
 9746 11621 11619 1
 9747 11622 11619 1
 9748 11623 11622 1
 9749 11625 11624 1
 9750 11626 11625 1
 9751 11627 11625 1
 9752 11628 11625 1
 9753 11629 11628 1
 9754 11631 11630 1
 9755 11632 11631 1
 9756 11633 11631 1
 9757 11634 11631 1
 9758 11635 11634 1
 9759 11637 11636 1
 9760 11638 11637 1
 9761 11639 11637 1
 9762 11640 11637 1
 9763 11641 11640 1
 9764 11643 11642 1
 9765 11644 11643 1
 9766 11645 11643 1
 9767 11646 11643 1
 9768 11647 11646 1
 9769 11649 11648 1
 9770 11650 11649 1
 9771 11651 11649 1
 9772 11652 11649 1
 9773 11653 11652 1
 9774 11655 11654 1
 9775 11656 11655 1
 9776 11657 11655 1
 9777 11658 11655 1
 9778 11659 11658 1
 9779 11661 11660 1
 9780 11662 11661 1
 9781 11663 11661 1
 9782 11664 11661 1
 9783 11665 11664 1
 9784 11667 11666 1
 9785 11668 11667 1
 9786 11669 11667 1
 9787 11670 11667 1
 9788 11671 11670 1
 9789 11673 11672 1
 9790 11674 11673 1
 9791 11675 11673 1
 9792 11676 11673 1
 9793 11677 11676 1
 9794 11679 11678 1
 9795 11680 11679 1
 9796 11681 11679 1
 9797 11682 11679 1
 9798 11683 11682 1
 9799 11685 11684 1
 9800 11686 11685 1
 9801 11687 11685 1
 9802 11688 11685 1
 9803 11689 11688 1
 9804 11691 11690 1
 9805 11692 11691 1
 9806 11693 11691 1
 9807 11694 11691 1
 9808 11695 11694 1
 9809 11697 11696 1
 9810 11698 11697 1
 9811 11699 11697 1
 9812 11700 11697 1
 9813 11701 11700 1
 9814 11703 11702 1
 9815 11704 11703 1
 9816 11705 11703 1
 9817 11706 11703 1
 9818 11707 11706 1
 9819 11709 11708 1
 9820 11710 11709 1
 9821 11711 11709 1
 9822 11712 11709 1
 9823 11713 11712 1
 9824 11715 11714 1
 9825 11716 11715 1
 9826 11717 11715 1
 9827 11718 11715 1
 9828 11719 11718 1
 9829 11721 11720 1
 9830 11722 11721 1
 9831 11723 11721 1
 9832 11724 11721 1
 9833 11725 11724 1
 9834 11727 11726 1
 9835 11728 11727 1
 9836 11729 11727 1
 9837 11730 11727 1
 9838 11731 11730 1
 9839 11733 11732 1
 9840 11734 11733 1
 9841 11735 11733 1
 9842 11736 11733 1
 9843 11737 11736 1
 9844 11739 11738 1
 9845 11740 11739 1
 9846 11741 11739 1
 9847 11742 11739 1
 9848 11743 11742 1
 9849 11745 11744 1
 9850 11746 11745 1
 9851 11747 11745 1
 9852 11748 11745 1
 9853 11749 11748 1
 9854 11751 11750 1
 9855 11752 11751 1
 9856 11753 11751 1
 9857 11754 11751 1
 9858 11755 11754 1
 9859 11757 11756 1
 9860 11758 11757 1
 9861 11759 11757 1
 9862 11760 11757 1
 9863 11761 11760 1
 9864 11763 11762 1
 9865 11764 11763 1
 9866 11765 11763 1
 9867 11766 11763 1
 9868 11767 11766 1
 9869 11769 11768 1
 9870 11770 11769 1
 9871 11771 11769 1
 9872 11772 11769 1
 9873 11773 11772 1
 9874 11775 11774 1
 9875 11776 11775 1
 9876 11777 11775 1
 9877 11778 11775 1
 9878 11779 11778 1
 9879 11781 11780 1
 9880 11782 11781 1
 9881 11783 11781 1
 9882 11784 11781 1
 9883 11785 11784 1
 9884 11787 11786 1
 9885 11788 11787 1
 9886 11789 11787 1
 9887 11790 11787 1
 9888 11791 11790 1
 9889 11793 11792 1
 9890 11794 11793 1
 9891 11795 11793 1
 9892 11796 11793 1
 9893 11797 11796 1
 9894 11799 11798 1
 9895 11800 11799 1
 9896 11801 11799 1
 9897 11802 11799 1
 9898 11803 11802 1
 9899 11805 11804 1
 9900 11806 11805 1
 9901 11807 11805 1
 9902 11808 11805 1
 9903 11809 11808 1
 9904 11811 11810 1
 9905 11812 11811 1
 9906 11813 11811 1
 9907 11814 11811 1
 9908 11815 11814 1
 9909 11817 11816 1
 9910 11818 11817 1
 9911 11819 11817 1
 9912 11820 11817 1
 9913 11821 11820 1
 9914 11823 11822 1
 9915 11824 11823 1
 9916 11825 11823 1
 9917 11826 11823 1
 9918 11827 11826 1
 9919 11829 11828 1
 9920 11830 11829 1
 9921 11831 11829 1
 9922 11832 11829 1
 9923 11833 11832 1
 9924 11835 11834 1
 9925 11836 11835 1
 9926 11837 11835 1
 9927 11838 11835 1
 9928 11839 11838 1
 9929 11841 11840 1
 9930 11842 11841 1
 9931 11843 11841 1
 9932 11844 11841 1
 9933 11845 11844 1
 9934 11847 11846 1
 9935 11848 11847 1
 9936 11849 11847 1
 9937 11850 11847 1
 9938 11851 11850 1
 9939 11853 11852 1
 9940 11854 11853 1
 9941 11855 11853 1
 9942 11856 11853 1
 9943 11857 11856 1
 9944 11859 11858 1
 9945 11860 11859 1
 9946 11861 11859 1
 9947 11862 11859 1
 9948 11863 11862 1
 9949 11865 11864 1
 9950 11866 11865 1
 9951 11867 11865 1
 9952 11868 11865 1
 9953 11869 11868 1
 9954 11871 11870 1
 9955 11872 11871 1
 9956 11873 11871 1
 9957 11874 11871 1
 9958 11875 11874 1
 9959 11877 11876 1
 9960 11878 11877 1
 9961 11879 11877 1
 9962 11880 11877 1
 9963 11881 11880 1
 9964 11883 11882 1
 9965 11884 11883 1
 9966 11885 11883 1
 9967 11886 11883 1
 9968 11887 11886 1
 9969 11889 11888 1
 9970 11890 11889 1
 9971 11891 11889 1
 9972 11892 11889 1
 9973 11893 11892 1
 9974 11895 11894 1
 9975 11896 11895 1
 9976 11897 11895 1
 9977 11898 11895 1
 9978 11899 11898 1
 9979 11901 11900 1
 9980 11902 11901 1
 9981 11903 11901 1
 9982 11904 11901 1
 9983 11905 11904 1
 9984 11907 11906 1
 9985 11908 11907 1
 9986 11909 11907 1
 9987 11910 11907 1
 9988 11911 11910 1
 9989 11913 11912 1
 9990 11914 11913 1
 9991 11915 11913 1
 9992 11916 11913 1
 9993 11917 11916 1
 9994 11919 11918 1
 9995 11920 11919 1
 9996 11921 11919 1
 9997 11922 11919 1
 9998 11923 11922 1
 9999 11925 11924 1
10000 11926 11925 1
10001 11927 11925 1
10002 11928 11925 1
10003 11929 11928 1
10004 11931 11930 1
10005 11932 11931 1
10006 11933 11931 1
10007 11934 11931 1
10008 11935 11934 1
10009 11937 11936 1
10010 11938 11937 1
10011 11939 11937 1
10012 11940 11937 1
10013 11941 11940 1
10014 11943 11942 1
10015 11944 11943 1
10016 11945 11943 1
10017 11946 11943 1
10018 11947 11946 1
10019 11949 11948 1
10020 11950 11949 1
10021 11951 11949 1
10022 11952 11949 1
10023 11953 11952 1
10024 11955 11954 1
10025 11956 11955 1
10026 11957 11955 1
10027 11958 11955 1
10028 11959 11958 1
10029 11961 11960 1
10030 11962 11961 1
10031 11963 11961 1
10032 11964 11961 1
10033 11965 11964 1
10034 11967 11966 1
10035 11968 11967 1
10036 11969 11967 1
10037 11970 11967 1
10038 11971 11970 1
10039 11973 11972 1
10040 11974 11973 1
10041 11975 11973 1
10042 11976 11973 1
10043 11977 11976 1
10044 11979 11978 1
10045 11980 11979 1
10046 11981 11979 1
10047 11982 11979 1
10048 11983 11982 1
10049 11985 11984 1
10050 11986 11985 1
10051 11987 11985 1
10052 11988 11985 1
10053 11989 11988 1
10054 11991 11990 1
10055 11992 11991 1
10056 11993 11991 1
10057 11994 11991 1
10058 11995 11994 1
10059 11997 11996 1
10060 11998 11997 1
10061 11999 11997 1
10062 12000 11997 1
10063 12001 12000 1
10064 12003 12002 1
10065 12004 12003 1
10066 12005 12003 1
10067 12006 12003 1
10068 12007 12006 1
10069 12009 12008 1
10070 12010 12009 1
10071 12011 12009 1
10072 12012 12009 1
10073 12013 12012 1
10074 12015 12014 1
10075 12016 12015 1
10076 12017 12015 1
10077 12018 12015 1
10078 12019 12018 1
10079 12021 12020 1
10080 12022 12021 1
10081 12023 12021 1
10082 12024 12021 1
10083 12025 12024 1
10084 12027 12026 1
10085 12028 12027 1
10086 12029 12027 1
10087 12030 12027 1
10088 12031 12030 1
10089 12033 12032 1
10090 12034 12033 1
10091 12035 12033 1
10092 12036 12033 1
10093 12037 12036 1
10094 12039 12038 1
10095 12040 12039 1
10096 12041 12039 1
10097 12042 12039 1
10098 12043 12042 1
10099 12045 12044 1
10100 12046 12045 1
10101 12047 12045 1
10102 12048 12045 1
10103 12049 12048 1
10104 12051 12050 1
10105 12052 12051 1
10106 12053 12051 1
10107 12054 12051 1
10108 12055 12054 1
10109 12057 12056 1
10110 12058 12057 1
10111 12059 12057 1
10112 12060 12057 1
10113 12061 12060 1
10114 12063 12062 1
10115 12064 12063 1
10116 12065 12063 1
10117 12066 12063 1
10118 12067 12066 1
10119 12069 12068 1
10120 12070 12069 1
10121 12071 12069 1
10122 12072 12069 1
10123 12073 12072 1
10124 12075 12074 1
10125 12076 12075 1
10126 12077 12075 1
10127 12078 12075 1
10128 12079 12078 1
10129 12081 12080 1
10130 12082 12081 1
10131 12083 12081 1
10132 12084 12081 1
10133 12085 12084 1
10134 12087 12086 1
10135 12088 12087 1
10136 12089 12087 1
10137 12090 12087 1
10138 12091 12090 1
10139 12093 12092 1
10140 12094 12093 1
10141 12095 12093 1
10142 12096 12093 1
10143 12097 12096 1
10144 12099 12098 1
10145 12100 12099 1
10146 12101 12099 1
10147 12102 12099 1
10148 12103 12102 1
10149 12105 12104 1
10150 12106 12105 1
10151 12107 12105 1
10152 12108 12105 1
10153 12109 12108 1
10154 12111 12110 1
10155 12112 12111 1
10156 12113 12111 1
10157 12114 12111 1
10158 12115 12114 1
10159 12117 12116 1
10160 12118 12117 1
10161 12119 12117 1
10162 12120 12117 1
10163 12121 12120 1
10164 12123 12122 1
10165 12124 12123 1
10166 12125 12123 1
10167 12126 12123 1
10168 12127 12126 1
10169 12129 12128 1
10170 12130 12129 1
10171 12131 12129 1
10172 12132 12129 1
10173 12133 12132 1
10174 12135 12134 1
10175 12136 12135 1
10176 12137 12135 1
10177 12138 12135 1
10178 12139 12138 1
10179 12141 12140 1
10180 12142 12141 1
10181 12143 12141 1
10182 12144 12141 1
10183 12145 12144 1
10184 12147 12146 1
10185 12148 12147 1
10186 12149 12147 1
10187 12150 12147 1
10188 12151 12150 1
10189 12153 12152 1
10190 12154 12153 1
10191 12155 12153 1
10192 12156 12153 1
10193 12157 12156 1
10194 12159 12158 1
10195 12160 12159 1
10196 12161 12159 1
10197 12162 12159 1
10198 12163 12162 1
10199 12165 12164 1
10200 12166 12165 1
10201 12167 12165 1
10202 12168 12165 1
10203 12169 12168 1
10204 12171 12170 1
10205 12172 12171 1
10206 12173 12171 1
10207 12174 12171 1
10208 12175 12174 1
10209 12177 12176 1
10210 12178 12177 1
10211 12179 12177 1
10212 12180 12177 1
10213 12181 12180 1
10214 12183 12182 1
10215 12184 12183 1
10216 12185 12183 1
10217 12186 12183 1
10218 12187 12186 1
10219 12189 12188 1
10220 12190 12189 1
10221 12191 12189 1
10222 12192 12189 1
10223 12193 12192 1
10224 12195 12194 1
10225 12196 12195 1
10226 12197 12195 1
10227 12198 12195 1
10228 12199 12198 1
10229 12201 12200 1
10230 12202 12201 1
10231 12203 12201 1
10232 12204 12201 1
10233 12205 12204 1
10234 12207 12206 1
10235 12208 12207 1
10236 12209 12207 1
10237 12210 12207 1
10238 12211 12210 1
10239 12213 12212 1
10240 12214 12213 1
10241 12215 12213 1
10242 12216 12213 1
10243 12217 12216 1
10244 12219 12218 1
10245 12220 12219 1
10246 12221 12219 1
10247 12222 12219 1
10248 12223 12222 1
10249 12225 12224 1
10250 12226 12225 1
10251 12227 12225 1
10252 12228 12225 1
10253 12229 12228 1
10254 12231 12230 1
10255 12232 12231 1
10256 12233 12231 1
10257 12234 12231 1
10258 12235 12234 1
10259 12237 12236 1
10260 12238 12237 1
10261 12239 12237 1
10262 12240 12237 1
10263 12241 12240 1
10264 12243 12242 1
10265 12244 12243 1
10266 12245 12243 1
10267 12246 12243 1
10268 12247 12246 1
10269 12249 12248 1
10270 12250 12249 1
10271 12251 12249 1
10272 12252 12249 1
10273 12253 12252 1
10274 12255 12254 1
10275 12256 12255 1
10276 12257 12255 1
10277 12258 12255 1
10278 12259 12258 1
10279 12261 12260 1
10280 12262 12261 1
10281 12263 12261 1
10282 12264 12261 1
10283 12265 12264 1
10284 12267 12266 1
10285 12268 12267 1
10286 12269 12267 1
10287 12270 12267 1
10288 12271 12270 1
10289 12273 12272 1
10290 12274 12273 1
10291 12275 12273 1
10292 12276 12273 1
10293 12277 12276 1
10294 12279 12278 1
10295 12280 12279 1
10296 12281 12279 1
10297 12282 12279 1
10298 12283 12282 1
10299 12285 12284 1
10300 12286 12285 1
10301 12287 12285 1
10302 12288 12285 1
10303 12289 12288 1
10304 12291 12290 1
10305 12292 12291 1
10306 12293 12291 1
10307 12294 12291 1
10308 12295 12294 1
10309 12297 12296 1
10310 12298 12297 1
10311 12299 12297 1
10312 12300 12297 1
10313 12301 12300 1
10314 12303 12302 1
10315 12304 12303 1
10316 12305 12303 1
10317 12306 12303 1
10318 12307 12306 1
10319 12309 12308 1
10320 12310 12309 1
10321 12311 12309 1
10322 12312 12309 1
10323 12313 12312 1
10324 12315 12314 1
10325 12316 12315 1
10326 12317 12315 1
10327 12318 12315 1
10328 12319 12318 1
10329 12321 12320 1
10330 12322 12321 1
10331 12323 12321 1
10332 12324 12321 1
10333 12325 12324 1
10334 12327 12326 1
10335 12328 12327 1
10336 12329 12327 1
10337 12330 12327 1
10338 12331 12330 1
10339 12333 12332 1
10340 12334 12333 1
10341 12335 12333 1
10342 12336 12333 1
10343 12337 12336 1
10344 12339 12338 1
10345 12340 12339 1
10346 12341 12339 1
10347 12342 12339 1
10348 12343 12342 1
10349 12345 12344 1
10350 12346 12345 1
10351 12347 12345 1
10352 12348 12345 1
10353 12349 12348 1
10354 12351 12350 1
10355 12352 12351 1
10356 12353 12351 1
10357 12354 12351 1
10358 12355 12354 1
10359 12357 12356 1
10360 12358 12357 1
10361 12359 12357 1
10362 12360 12357 1
10363 12361 12360 1
10364 12363 12362 1
10365 12364 12363 1
10366 12365 12363 1
10367 12366 12363 1
10368 12367 12366 1
10369 12369 12368 1
10370 12370 12369 1
10371 12371 12369 1
10372 12372 12369 1
10373 12373 12372 1
10374 12375 12374 1
10375 12376 12375 1
10376 12377 12375 1
10377 12378 12375 1
10378 12379 12378 1
10379 12381 12380 1
10380 12382 12381 1
10381 12383 12381 1
10382 12384 12381 1
10383 12385 12384 1
10384 12387 12386 1
10385 12388 12387 1
10386 12389 12387 1
10387 12390 12387 1
10388 12391 12390 1
10389 12393 12392 1
10390 12394 12393 1
10391 12395 12393 1
10392 12396 12393 1
10393 12397 12396 1
10394 12399 12398 1
10395 12400 12399 1
10396 12401 12399 1
10397 12402 12399 1
10398 12403 12402 1
10399 12405 12404 1
10400 12406 12405 1
10401 12407 12405 1
10402 12408 12405 1
10403 12409 12408 1
10404 12411 12410 1
10405 12412 12411 1
10406 12413 12411 1
10407 12414 12411 1
10408 12415 12414 1
10409 12417 12416 1
10410 12418 12417 1
10411 12419 12417 1
10412 12420 12417 1
10413 12421 12420 1
10414 12423 12422 1
10415 12424 12423 1
10416 12425 12423 1
10417 12426 12423 1
10418 12427 12426 1
10419 12429 12428 1
10420 12430 12429 1
10421 12431 12429 1
10422 12432 12429 1
10423 12433 12432 1
10424 12435 12434 1
10425 12436 12435 1
10426 12437 12435 1
10427 12438 12435 1
10428 12439 12438 1
10429 12441 12440 1
10430 12442 12441 1
10431 12443 12441 1
10432 12444 12441 1
10433 12445 12444 1
10434 12447 12446 1
10435 12448 12447 1
10436 12449 12447 1
10437 12450 12447 1
10438 12451 12450 1
10439 12453 12452 1
10440 12454 12453 1
10441 12455 12453 1
10442 12456 12453 1
10443 12457 12456 1
10444 12459 12458 1
10445 12460 12459 1
10446 12461 12459 1
10447 12462 12459 1
10448 12463 12462 1
10449 12465 12464 1
10450 12466 12465 1
10451 12467 12465 1
10452 12468 12465 1
10453 12469 12468 1
10454 12471 12470 1
10455 12472 12471 1
10456 12473 12471 1
10457 12474 12471 1
10458 12475 12474 1
10459 12477 12476 1
10460 12478 12477 1
10461 12479 12477 1
10462 12480 12477 1
10463 12481 12480 1
10464 12483 12482 1
10465 12484 12483 1
10466 12485 12483 1
10467 12486 12483 1
10468 12487 12486 1
10469 12489 12488 1
10470 12490 12489 1
10471 12491 12489 1
10472 12492 12489 1
10473 12493 12492 1
10474 12495 12494 1
10475 12496 12495 1
10476 12497 12495 1
10477 12498 12495 1
10478 12499 12498 1
10479 12501 12500 1
10480 12502 12501 1
10481 12503 12501 1
10482 12504 12501 1
10483 12505 12504 1
10484 12507 12506 1
10485 12508 12507 1
10486 12509 12507 1
10487 12510 12507 1
10488 12511 12510 1
10489 12513 12512 1
10490 12514 12513 1
10491 12515 12513 1
10492 12516 12513 1
10493 12517 12516 1
10494 12519 12518 1
10495 12520 12519 1
10496 12521 12519 1
10497 12522 12519 1
10498 12523 12522 1
10499 12525 12524 1
10500 12526 12525 1
10501 12527 12525 1
10502 12528 12525 1
10503 12529 12528 1
10504 12531 12530 1
10505 12532 12531 1
10506 12533 12531 1
10507 12534 12531 1
10508 12535 12534 1
10509 12537 12536 1
10510 12538 12537 1
10511 12539 12537 1
10512 12540 12537 1
10513 12541 12540 1
10514 12543 12542 1
10515 12544 12543 1
10516 12545 12543 1
10517 12546 12543 1
10518 12547 12546 1
10519 12549 12548 1
10520 12550 12549 1
10521 12551 12549 1
10522 12552 12549 1
10523 12553 12552 1
10524 12555 12554 1
10525 12556 12555 1
10526 12557 12555 1
10527 12558 12555 1
10528 12559 12558 1
10529 12561 12560 1
10530 12562 12561 1
10531 12563 12561 1
10532 12564 12561 1
10533 12565 12564 1
10534 12567 12566 1
10535 12568 12567 1
10536 12569 12567 1
10537 12570 12567 1
10538 12571 12570 1
10539 12573 12572 1
10540 12574 12573 1
10541 12575 12573 1
10542 12576 12573 1
10543 12577 12576 1
10544 12579 12578 1
10545 12580 12579 1
10546 12581 12579 1
10547 12582 12579 1
10548 12583 12582 1
10549 12585 12584 1
10550 12586 12585 1
10551 12587 12585 1
10552 12588 12585 1
10553 12589 12588 1
10554 12591 12590 1
10555 12592 12591 1
10556 12593 12591 1
10557 12594 12591 1
10558 12595 12594 1
10559 12597 12596 1
10560 12598 12597 1
10561 12599 12597 1
10562 12600 12597 1
10563 12601 12600 1
10564 12603 12602 1
10565 12604 12603 1
10566 12605 12603 1
10567 12606 12603 1
10568 12607 12606 1
10569 12609 12608 1
10570 12610 12609 1
10571 12611 12609 1
10572 12612 12609 1
10573 12613 12612 1
10574 12615 12614 1
10575 12616 12615 1
10576 12617 12615 1
10577 12618 12615 1
10578 12619 12618 1
10579 12621 12620 1
10580 12622 12621 1
10581 12623 12621 1
10582 12624 12621 1
10583 12625 12624 1
10584 12627 12626 1
10585 12628 12627 1
10586 12629 12627 1
10587 12630 12627 1
10588 12631 12630 1
10589 12633 12632 1
10590 12634 12633 1
10591 12635 12633 1
10592 12636 12633 1
10593 12637 12636 1
10594 12639 12638 1
10595 12640 12639 1
10596 12641 12639 1
10597 12642 12639 1
10598 12643 12642 1
10599 12645 12644 1
10600 12646 12645 1
10601 12647 12645 1
10602 12648 12645 1
10603 12649 12648 1
10604 12651 12650 1
10605 12652 12651 1
10606 12653 12651 1
10607 12654 12651 1
10608 12655 12654 1
10609 12657 12656 1
10610 12658 12657 1
10611 12659 12657 1
10612 12660 12657 1
10613 12661 12660 1
10614 12663 12662 1
10615 12664 12663 1
10616 12665 12663 1
10617 12666 12663 1
10618 12667 12666 1
10619 12669 12668 1
10620 12670 12669 1
10621 12671 12669 1
10622 12672 12669 1
10623 12673 12672 1
10624 12675 12674 1
10625 12676 12675 1
10626 12677 12675 1
10627 12678 12675 1
10628 12679 12678 1
10629 12681 12680 1
10630 12682 12681 1
10631 12683 12681 1
10632 12684 12681 1
10633 12685 12684 1
10634 12687 12686 1
10635 12688 12687 1
10636 12689 12687 1
10637 12690 12687 1
10638 12691 12690 1
10639 12693 12692 1
10640 12694 12693 1
10641 12695 12693 1
10642 12696 12693 1
10643 12697 12696 1
10644 12699 12698 1
10645 12700 12699 1
10646 12701 12699 1
10647 12702 12699 1
10648 12703 12702 1
10649 12705 12704 1
10650 12706 12705 1
10651 12707 12705 1
10652 12708 12705 1
10653 12709 12708 1
10654 12711 12710 1
10655 12712 12711 1
10656 12713 12711 1
10657 12714 12711 1
10658 12715 12714 1
10659 12717 12716 1
10660 12718 12717 1
10661 12719 12717 1
10662 12720 12717 1
10663 12721 12720 1
10664 12723 12722 1
10665 12724 12723 1
10666 12725 12723 1
10667 12726 12723 1
10668 12727 12726 1
10669 12729 12728 1
10670 12730 12729 1
10671 12731 12729 1
10672 12732 12729 1
10673 12733 12732 1
10674 12735 12734 1
10675 12736 12735 1
10676 12737 12735 1
10677 12738 12735 1
10678 12739 12738 1
10679 12741 12740 1
10680 12742 12741 1
10681 12743 12741 1
10682 12744 12741 1
10683 12745 12744 1
10684 12747 12746 1
10685 12748 12747 1
10686 12749 12747 1
10687 12750 12747 1
10688 12751 12750 1
10689 12753 12752 1
10690 12754 12753 1
10691 12755 12753 1
10692 12756 12753 1
10693 12757 12756 1
10694 12759 12758 1
10695 12760 12759 1
10696 12761 12759 1
10697 12762 12759 1
10698 12763 12762 1
10699 12765 12764 1
10700 12766 12765 1
10701 12767 12765 1
10702 12768 12765 1
10703 12769 12768 1
10704 12771 12770 1
10705 12772 12771 1
10706 12773 12771 1
10707 12774 12771 1
10708 12775 12774 1
10709 12777 12776 1
10710 12778 12777 1
10711 12779 12777 1
10712 12780 12777 1
10713 12781 12780 1
10714 12783 12782 1
10715 12784 12783 1
10716 12785 12783 1
10717 12786 12783 1
10718 12787 12786 1
10719 12789 12788 1
10720 12790 12789 1
10721 12791 12789 1
10722 12792 12789 1
10723 12793 12792 1
10724 12795 12794 1
10725 12796 12795 1
10726 12797 12795 1
10727 12798 12795 1
10728 12799 12798 1
10729 12801 12800 1
10730 12802 12801 1
10731 12803 12801 1
10732 12804 12801 1
10733 12805 12804 1
10734 12807 12806 1
10735 12808 12807 1
10736 12809 12807 1
10737 12810 12807 1
10738 12811 12810 1
10739 12813 12812 1
10740 12814 12813 1
10741 12815 12813 1
10742 12816 12813 1
10743 12817 12816 1
10744 12819 12818 1
10745 12820 12819 1
10746 12821 12819 1
10747 12822 12819 1
10748 12823 12822 1
10749 12825 12824 1
10750 12826 12825 1
10751 12827 12825 1
10752 12828 12825 1
10753 12829 12828 1
10754 12831 12830 1
10755 12832 12831 1
10756 12833 12831 1
10757 12834 12831 1
10758 12835 12834 1
10759 12837 12836 1
10760 12838 12837 1
10761 12839 12837 1
10762 12840 12837 1
10763 12841 12840 1
10764 12843 12842 1
10765 12844 12843 1
10766 12845 12843 1
10767 12846 12843 1
10768 12847 12846 1
10769 12849 12848 1
10770 12850 12849 1
10771 12851 12849 1
10772 12852 12849 1
10773 12853 12852 1
10774 12855 12854 1
10775 12856 12855 1
10776 12857 12855 1
10777 12858 12855 1
10778 12859 12858 1
10779 12861 12860 1
10780 12862 12861 1
10781 12863 12861 1
10782 12864 12861 1
10783 12865 12864 1
10784 12867 12866 1
10785 12868 12867 1
10786 12869 12867 1
10787 12870 12867 1
10788 12871 12870 1
10789 12873 12872 1
10790 12874 12873 1
10791 12875 12873 1
10792 12876 12873 1
10793 12877 12876 1
10794 12879 12878 1
10795 12880 12879 1
10796 12881 12879 1
10797 12882 12879 1
10798 12883 12882 1
10799 12885 12884 1
10800 12886 12885 1
10801 12887 12885 1
10802 12888 12885 1
10803 12889 12888 1
10804 12891 12890 1
10805 12892 12891 1
10806 12893 12891 1
10807 12894 12891 1
10808 12895 12894 1
10809 12897 12896 1
10810 12898 12897 1
10811 12899 12897 1
10812 12900 12897 1
10813 12901 12900 1
10814 12903 12902 1
10815 12904 12903 1
10816 12905 12903 1
10817 12906 12903 1
10818 12907 12906 1
10819 12909 12908 1
10820 12910 12909 1
10821 12911 12909 1
10822 12912 12909 1
10823 12913 12912 1
10824 12915 12914 1
10825 12916 12915 1
10826 12917 12915 1
10827 12918 12915 1
10828 12919 12918 1
10829 12921 12920 1
10830 12922 12921 1
10831 12923 12921 1
10832 12924 12921 1
10833 12925 12924 1
10834 12927 12926 1
10835 12928 12927 1
10836 12929 12927 1
10837 12930 12927 1
10838 12931 12930 1
10839 12933 12932 1
10840 12934 12933 1
10841 12935 12933 1
10842 12936 12933 1
10843 12937 12936 1
10844 12939 12938 1
10845 12940 12939 1
10846 12941 12939 1
10847 12942 12939 1
10848 12943 12942 1
10849 12945 12944 1
10850 12946 12945 1
10851 12947 12945 1
10852 12948 12945 1
10853 12949 12948 1
10854 12951 12950 1
10855 12952 12951 1
10856 12953 12951 1
10857 12954 12951 1
10858 12955 12954 1
10859 12957 12956 1
10860 12958 12957 1
10861 12959 12957 1
10862 12960 12957 1
10863 12961 12960 1
10864 12963 12962 1
10865 12964 12963 1
10866 12965 12963 1
10867 12966 12963 1
10868 12967 12966 1
10869 12969 12968 1
10870 12970 12969 1
10871 12971 12969 1
10872 12972 12969 1
10873 12973 12972 1
10874 12975 12974 1
10875 12976 12975 1
10876 12977 12975 1
10877 12978 12975 1
10878 12979 12978 1
10879 12981 12980 1
10880 12982 12981 1
10881 12983 12981 1
10882 12984 12981 1
10883 12985 12984 1
10884 12987 12986 1
10885 12988 12987 1
10886 12989 12987 1
10887 12990 12987 1
10888 12991 12990 1
10889 12993 12992 1
10890 12994 12993 1
10891 12995 12993 1
10892 12996 12993 1
10893 12997 12996 1
10894 12999 12998 1
10895 13000 12999 1
10896 13001 12999 1
10897 13002 12999 1
10898 13003 13002 1
10899 13005 13004 1
10900 13006 13005 1
10901 13007 13005 1
10902 13008 13005 1
10903 13009 13008 1
10904 13011 13010 1
10905 13012 13011 1
10906 13013 13011 1
10907 13014 13011 1
10908 13015 13014 1
10909 13017 13016 1
10910 13018 13017 1
10911 13019 13017 1
10912 13020 13017 1
10913 13021 13020 1
10914 13023 13022 1
10915 13024 13023 1
10916 13025 13023 1
10917 13026 13023 1
10918 13027 13026 1
10919 13029 13028 1
10920 13030 13029 1
10921 13031 13029 1
10922 13032 13029 1
10923 13033 13032 1
10924 13035 13034 1
10925 13036 13035 1
10926 13037 13035 1
10927 13038 13035 1
10928 13039 13038 1
10929 13041 13040 1
10930 13042 13041 1
10931 13043 13041 1
10932 13044 13041 1
10933 13045 13044 1
10934 13047 13046 1
10935 13048 13047 1
10936 13049 13047 1
10937 13050 13047 1
10938 13051 13050 1
10939 13053 13052 1
10940 13054 13053 1
10941 13055 13053 1
10942 13056 13053 1
10943 13057 13056 1
10944 13059 13058 1
10945 13060 13059 1
10946 13061 13059 1
10947 13062 13059 1
10948 13063 13062 1
10949 13065 13064 1
10950 13066 13065 1
10951 13067 13065 1
10952 13068 13065 1
10953 13069 13068 1
10954 13071 13070 1
10955 13072 13071 1
10956 13073 13071 1
10957 13074 13071 1
10958 13075 13074 1
10959 13077 13076 1
10960 13078 13077 1
10961 13079 13077 1
10962 13080 13077 1
10963 13081 13080 1
10964 13083 13082 1
10965 13084 13083 1
10966 13085 13083 1
10967 13086 13083 1
10968 13087 13086 1
10969 13089 13088 1
10970 13090 13089 1
10971 13091 13089 1
10972 13092 13089 1
10973 13093 13092 1
10974 13095 13094 1
10975 13096 13095 1
10976 13097 13095 1
10977 13098 13095 1
10978 13099 13098 1
10979 13101 13100 1
10980 13102 13101 1
10981 13103 13101 1
10982 13104 13101 1
10983 13105 13104 1
10984 13107 13106 1
10985 13108 13107 1
10986 13109 13107 1
10987 13110 13107 1
10988 13111 13110 1
10989 13113 13112 1
10990 13114 13113 1
10991 13115 13113 1
10992 13116 13113 1
10993 13117 13116 1
10994 13119 13118 1
10995 13120 13119 1
10996 13121 13119 1
10997 13122 13119 1
10998 13123 13122 1
10999 13125 13124 1
11000 13126 13125 1
11001 13127 13125 1
11002 13128 13125 1
11003 13129 13128 1
11004 13131 13130 1
11005 13132 13131 1
11006 13133 13131 1
11007 13134 13131 1
11008 13135 13134 1
11009 13137 13136 1
11010 13138 13137 1
11011 13139 13137 1
11012 13140 13137 1
11013 13141 13140 1
11014 13143 13142 1
11015 13144 13143 1
11016 13145 13143 1
11017 13146 13143 1
11018 13147 13146 1
11019 13149 13148 1
11020 13150 13149 1
11021 13151 13149 1
11022 13152 13149 1
11023 13153 13152 1
11024 13155 13154 1
11025 13156 13155 1
11026 13157 13155 1
11027 13158 13155 1
11028 13159 13158 1
11029 13161 13160 1
11030 13162 13161 1
11031 13163 13161 1
11032 13164 13161 1
11033 13165 13164 1
11034 13167 13166 1
11035 13168 13167 1
11036 13169 13167 1
11037 13170 13167 1
11038 13171 13170 1
11039 13173 13172 1
11040 13174 13173 1
11041 13175 13173 1
11042 13176 13173 1
11043 13177 13176 1
11044 13179 13178 1
11045 13180 13179 1
11046 13181 13179 1
11047 13182 13179 1
11048 13183 13182 1
11049 13185 13184 1
11050 13186 13185 1
11051 13187 13185 1
11052 13188 13185 1
11053 13189 13188 1
11054 13191 13190 1
11055 13192 13191 1
11056 13193 13191 1
11057 13194 13191 1
11058 13195 13194 1
11059 13197 13196 1
11060 13198 13197 1
11061 13199 13197 1
11062 13200 13197 1
11063 13201 13200 1
11064 13203 13202 1
11065 13204 13203 1
11066 13205 13203 1
11067 13206 13203 1
11068 13207 13206 1
11069 13209 13208 1
11070 13210 13209 1
11071 13211 13209 1
11072 13212 13209 1
11073 13213 13212 1
11074 13215 13214 1
11075 13216 13215 1
11076 13217 13215 1
11077 13218 13215 1
11078 13219 13218 1
11079 13221 13220 1
11080 13222 13221 1
11081 13223 13221 1
11082 13224 13221 1
11083 13225 13224 1
11084 13227 13226 1
11085 13228 13227 1
11086 13229 13227 1
11087 13230 13227 1
11088 13231 13230 1
11089 13233 13232 1
11090 13234 13233 1
11091 13235 13233 1
11092 13236 13233 1
11093 13237 13236 1
11094 13239 13238 1
11095 13240 13239 1
11096 13241 13239 1
11097 13242 13239 1
11098 13243 13242 1
11099 13245 13244 1
11100 13246 13245 1
11101 13247 13245 1
11102 13248 13245 1
11103 13249 13248 1
11104 13251 13250 1
11105 13252 13251 1
11106 13253 13251 1
11107 13254 13251 1
11108 13255 13254 1
11109 13257 13256 1
11110 13258 13257 1
11111 13259 13257 1
11112 13260 13257 1
11113 13261 13260 1
11114 13263 13262 1
11115 13264 13263 1
11116 13265 13263 1
11117 13266 13263 1
11118 13267 13266 1
11119 13269 13268 1
11120 13270 13269 1
11121 13271 13269 1
11122 13272 13269 1
11123 13273 13272 1
11124 13275 13274 1
11125 13276 13275 1
11126 13277 13275 1
11127 13278 13275 1
11128 13279 13278 1
11129 13281 13280 1
11130 13282 13281 1
11131 13283 13281 1
11132 13284 13281 1
11133 13285 13284 1
11134 13287 13286 1
11135 13288 13287 1
11136 13289 13287 1
11137 13290 13287 1
11138 13291 13290 1
11139 13293 13292 1
11140 13294 13293 1
11141 13295 13293 1
11142 13296 13293 1
11143 13297 13296 1
11144 13299 13298 1
11145 13300 13299 1
11146 13301 13299 1
11147 13302 13299 1
11148 13303 13302 1
11149 13305 13304 1
11150 13306 13305 1
11151 13307 13305 1
11152 13308 13305 1
11153 13309 13308 1
11154 13311 13310 1
11155 13312 13311 1
11156 13313 13311 1
11157 13314 13311 1
11158 13315 13314 1
11159 13317 13316 1
11160 13318 13317 1
11161 13319 13317 1
11162 13320 13317 1
11163 13321 13320 1
11164 13323 13322 1
11165 13324 13323 1
11166 13325 13323 1
11167 13326 13323 1
11168 13327 13326 1
11169 13329 13328 1
11170 13330 13329 1
11171 13331 13329 1
11172 13332 13329 1
11173 13333 13332 1
11174 13335 13334 1
11175 13336 13335 1
11176 13337 13335 1
11177 13338 13335 1
11178 13339 13338 1
11179 13341 13340 1
11180 13342 13341 1
11181 13343 13341 1
11182 13344 13341 1
11183 13345 13344 1
11184 13347 13346 1
11185 13348 13347 1
11186 13349 13347 1
11187 13350 13347 1
11188 13351 13350 1
11189 13353 13352 1
11190 13354 13353 1
11191 13355 13353 1
11192 13356 13353 1
11193 13357 13356 1
11194 13359 13358 1
11195 13360 13359 1
11196 13361 13359 1
11197 13362 13359 1
11198 13363 13362 1
11199 13365 13364 1
11200 13366 13365 1
11201 13367 13365 1
11202 13368 13365 1
11203 13369 13368 1
11204 13371 13370 1
11205 13372 13371 1
11206 13373 13371 1
11207 13374 13371 1
11208 13375 13374 1
11209 13377 13376 1
11210 13378 13377 1
11211 13379 13377 1
11212 13380 13377 1
11213 13381 13380 1
11214 13383 13382 1
11215 13384 13383 1
11216 13385 13383 1
11217 13386 13383 1
11218 13387 13386 1
11219 13389 13388 1
11220 13390 13389 1
11221 13391 13389 1
11222 13392 13389 1
11223 13393 13392 1
11224 13395 13394 1
11225 13396 13395 1
11226 13397 13395 1
11227 13398 13395 1
11228 13399 13398 1
11229 13401 13400 1
11230 13402 13401 1
11231 13403 13401 1
11232 13404 13401 1
11233 13405 13404 1
11234 13407 13406 1
11235 13408 13407 1
11236 13409 13407 1
11237 13410 13407 1
11238 13411 13410 1
11239 13413 13412 1
11240 13414 13413 1
11241 13415 13413 1
11242 13416 13413 1
11243 13417 13416 1
11244 13419 13418 1
11245 13420 13419 1
11246 13421 13419 1
11247 13422 13419 1
11248 13423 13422 1
11249 13425 13424 1
11250 13426 13425 1
11251 13427 13425 1
11252 13428 13425 1
11253 13429 13428 1
11254 13431 13430 1
11255 13432 13431 1
11256 13433 13431 1
11257 13434 13431 1
11258 13435 13434 1
11259 13437 13436 1
11260 13438 13437 1
11261 13439 13437 1
11262 13440 13437 1
11263 13441 13440 1
11264 13443 13442 1
11265 13444 13443 1
11266 13445 13443 1
11267 13446 13443 1
11268 13447 13446 1
11269 13449 13448 1
11270 13450 13449 1
11271 13451 13449 1
11272 13452 13449 1
11273 13453 13452 1
11274 13455 13454 1
11275 13456 13455 1
11276 13457 13455 1
11277 13458 13455 1
11278 13459 13458 1
11279 13461 13460 1
11280 13462 13461 1
11281 13463 13461 1
11282 13464 13461 1
11283 13465 13464 1
11284 13467 13466 1
11285 13468 13467 1
11286 13469 13467 1
11287 13470 13467 1
11288 13471 13470 1
11289 13473 13472 1
11290 13474 13473 1
11291 13475 13473 1
11292 13476 13473 1
11293 13477 13476 1
11294 13479 13478 1
11295 13480 13479 1
11296 13481 13479 1
11297 13482 13479 1
11298 13483 13482 1
11299 13485 13484 1
11300 13486 13485 1
11301 13487 13485 1
11302 13488 13485 1
11303 13489 13488 1
11304 13491 13490 1
11305 13492 13491 1
11306 13493 13491 1
11307 13494 13491 1
11308 13495 13494 1
11309 13497 13496 1
11310 13498 13497 1
11311 13499 13497 1
11312 13500 13497 1
11313 13501 13500 1
11314 13503 13502 1
11315 13504 13503 1
11316 13505 13503 1
11317 13506 13503 1
11318 13507 13506 1
11319 13509 13508 1
11320 13510 13509 1
11321 13511 13509 1
11322 13512 13509 1
11323 13513 13512 1
11324 13515 13514 1
11325 13516 13515 1
11326 13517 13515 1
11327 13518 13515 1
11328 13519 13518 1
11329 13521 13520 1
11330 13522 13521 1
11331 13523 13521 1
11332 13524 13521 1
11333 13525 13524 1
11334 13527 13526 1
11335 13528 13527 1
11336 13529 13527 1
11337 13530 13527 1
11338 13531 13530 1
11339 13533 13532 1
11340 13534 13533 1
11341 13535 13533 1
11342 13536 13533 1
11343 13537 13536 1
11344 13539 13538 1
11345 13540 13539 1
11346 13541 13539 1
11347 13542 13539 1
11348 13543 13542 1
11349 13545 13544 1
11350 13546 13545 1
11351 13547 13545 1
11352 13548 13545 1
11353 13549 13548 1
11354 13551 13550 1
11355 13552 13551 1
11356 13553 13551 1
11357 13554 13551 1
11358 13555 13554 1
11359 13557 13556 1
11360 13558 13557 1
11361 13559 13557 1
11362 13560 13557 1
11363 13561 13560 1
11364 13563 13562 1
11365 13564 13563 1
11366 13565 13563 1
11367 13566 13563 1
11368 13567 13566 1
11369 13569 13568 1
11370 13570 13569 1
11371 13571 13569 1
11372 13572 13569 1
11373 13573 13572 1
11374 13575 13574 1
11375 13576 13575 1
11376 13577 13575 1
11377 13578 13575 1
11378 13579 13578 1
11379 13581 13580 1
11380 13582 13581 1
11381 13583 13581 1
11382 13584 13581 1
11383 13585 13584 1
11384 13587 13586 1
11385 13588 13587 1
11386 13589 13587 1
11387 13590 13587 1
11388 13591 13590 1
11389 13593 13592 1
11390 13594 13593 1
11391 13595 13593 1
11392 13596 13593 1
11393 13597 13596 1
11394 13599 13598 1
11395 13600 13599 1
11396 13601 13599 1
11397 13602 13599 1
11398 13603 13602 1
11399 13605 13604 1
11400 13606 13605 1
11401 13607 13605 1
11402 13608 13605 1
11403 13609 13608 1
11404 13611 13610 1
11405 13612 13611 1
11406 13613 13611 1
11407 13614 13611 1
11408 13615 13614 1
11409 13617 13616 1
11410 13618 13617 1
11411 13619 13617 1
11412 13620 13617 1
11413 13621 13620 1
11414 13623 13622 1
11415 13624 13623 1
11416 13625 13623 1
11417 13626 13623 1
11418 13627 13626 1
11419 13629 13628 1
11420 13630 13629 1
11421 13631 13629 1
11422 13632 13629 1
11423 13633 13632 1
11424 13635 13634 1
11425 13636 13635 1
11426 13637 13635 1
11427 13638 13635 1
11428 13639 13638 1
11429 13641 13640 1
11430 13642 13641 1
11431 13643 13641 1
11432 13644 13641 1
11433 13645 13644 1
11434 13647 13646 1
11435 13648 13647 1
11436 13649 13647 1
11437 13650 13647 1
11438 13651 13650 1
11439 13653 13652 1
11440 13654 13653 1
11441 13655 13653 1
11442 13656 13653 1
11443 13657 13656 1
11444 13659 13658 1
11445 13660 13659 1
11446 13661 13659 1
11447 13662 13659 1
11448 13663 13662 1
11449 13665 13664 1
11450 13666 13665 1
11451 13667 13665 1
11452 13668 13665 1
11453 13669 13668 1
11454 13671 13670 1
11455 13672 13671 1
11456 13673 13671 1
11457 13674 13671 1
11458 13675 13674 1
11459 13677 13676 1
11460 13678 13677 1
11461 13679 13677 1
11462 13680 13677 1
11463 13681 13680 1
11464 13683 13682 1
11465 13684 13683 1
11466 13685 13683 1
11467 13686 13683 1
11468 13687 13686 1
11469 13689 13688 1
11470 13690 13689 1
11471 13691 13689 1
11472 13692 13689 1
11473 13693 13692 1
11474 13695 13694 1
11475 13696 13695 1
11476 13697 13695 1
11477 13698 13695 1
11478 13699 13698 1
11479 13701 13700 1
11480 13702 13701 1
11481 13703 13701 1
11482 13704 13701 1
11483 13705 13704 1
11484 13707 13706 1
11485 13708 13707 1
11486 13709 13707 1
11487 13710 13707 1
11488 13711 13710 1
11489 13713 13712 1
11490 13714 13713 1
11491 13715 13713 1
11492 13716 13713 1
11493 13717 13716 1
11494 13719 13718 1
11495 13720 13719 1
11496 13721 13719 1
11497 13722 13719 1
11498 13723 13722 1
11499 13725 13724 1
11500 13726 13725 1
11501 13727 13725 1
11502 13728 13725 1
11503 13729 13728 1
11504 13731 13730 1
11505 13732 13731 1
11506 13733 13731 1
11507 13734 13731 1
11508 13735 13734 1
11509 13737 13736 1
11510 13738 13737 1
11511 13739 13737 1
11512 13740 13737 1
11513 13741 13740 1
11514 13743 13742 1
11515 13744 13743 1
11516 13745 13743 1
11517 13746 13743 1
11518 13747 13746 1
11519 13749 13748 1
11520 13750 13749 1
11521 13751 13749 1
11522 13752 13749 1
11523 13753 13752 1
11524 13755 13754 1
11525 13756 13755 1
11526 13757 13755 1
11527 13758 13755 1
11528 13759 13758 1
11529 13761 13760 1
11530 13762 13761 1
11531 13763 13761 1
11532 13764 13761 1
11533 13765 13764 1
11534 13767 13766 1
11535 13768 13767 1
11536 13769 13767 1
11537 13770 13767 1
11538 13771 13770 1
11539 13773 13772 1
11540 13774 13773 1
11541 13775 13773 1
11542 13776 13773 1
11543 13777 13776 1
11544 13779 13778 1
11545 13780 13779 1
11546 13781 13779 1
11547 13782 13779 1
11548 13783 13782 1
11549 13785 13784 1
11550 13786 13785 1
11551 13787 13785 1
11552 13788 13785 1
11553 13789 13788 1
11554 13791 13790 1
11555 13792 13791 1
11556 13793 13791 1
11557 13794 13791 1
11558 13795 13794 1
11559 13797 13796 1
11560 13798 13797 1
11561 13799 13797 1
11562 13800 13797 1
11563 13801 13800 1
11564 13803 13802 1
11565 13804 13803 1
11566 13805 13803 1
11567 13806 13803 1
11568 13807 13806 1
11569 13809 13808 1
11570 13810 13809 1
11571 13811 13809 1
11572 13812 13809 1
11573 13813 13812 1
11574 13815 13814 1
11575 13816 13815 1
11576 13817 13815 1
11577 13818 13815 1
11578 13819 13818 1
11579 13821 13820 1
11580 13822 13821 1
11581 13823 13821 1
11582 13824 13821 1
11583 13825 13824 1
11584 13827 13826 1
11585 13828 13827 1
11586 13829 13827 1
11587 13830 13827 1
11588 13831 13830 1
11589 13833 13832 1
11590 13834 13833 1
11591 13835 13833 1
11592 13836 13833 1
11593 13837 13836 1
11594 13839 13838 1
11595 13840 13839 1
11596 13841 13839 1
11597 13842 13839 1
11598 13843 13842 1
11599 13845 13844 1
11600 13846 13845 1
11601 13847 13845 1
11602 13848 13845 1
11603 13849 13848 1
11604 13851 13850 1
11605 13852 13851 1
11606 13853 13851 1
11607 13854 13851 1
11608 13855 13854 1
11609 13857 13856 1
11610 13858 13857 1
11611 13859 13857 1
11612 13860 13857 1
11613 13861 13860 1
11614 13863 13862 1
11615 13864 13863 1
11616 13865 13863 1
11617 13866 13863 1
11618 13867 13866 1
11619 13869 13868 1
11620 13870 13869 1
11621 13871 13869 1
11622 13872 13869 1
11623 13873 13872 1
11624 13875 13874 1
11625 13876 13875 1
11626 13877 13875 1
11627 13878 13875 1
11628 13879 13878 1
11629 13881 13880 1
11630 13882 13881 1
11631 13883 13881 1
11632 13884 13881 1
11633 13885 13884 1
11634 13887 13886 1
11635 13888 13887 1
11636 13889 13887 1
11637 13890 13887 1
11638 13891 13890 1
11639 13893 13892 1
11640 13894 13893 1
11641 13895 13893 1
11642 13896 13893 1
11643 13897 13896 1
11644 13899 13898 1
11645 13900 13899 1
11646 13901 13899 1
11647 13902 13899 1
11648 13903 13902 1
11649 13905 13904 1
11650 13906 13905 1
11651 13907 13905 1
11652 13908 13905 1
11653 13909 13908 1
11654 13911 13910 1
11655 13912 13911 1
11656 13913 13911 1
11657 13914 13911 1
11658 13915 13914 1
11659 13917 13916 1
11660 13918 13917 1
11661 13919 13917 1
11662 13920 13917 1
11663 13921 13920 1
11664 13923 13922 1
11665 13924 13923 1
11666 13925 13923 1
11667 13926 13923 1
11668 13927 13926 1
11669 13929 13928 1
11670 13930 13929 1
11671 13931 13929 1
11672 13932 13929 1
11673 13933 13932 1
11674 13935 13934 1
11675 13936 13935 1
11676 13937 13935 1
11677 13938 13935 1
11678 13939 13938 1
11679 13941 13940 1
11680 13942 13941 1
11681 13943 13941 1
11682 13944 13941 1
11683 13945 13944 1
11684 13947 13946 1
11685 13948 13947 1
11686 13949 13947 1
11687 13950 13947 1
11688 13951 13950 1
11689 13953 13952 1
11690 13954 13953 1
11691 13955 13953 1
11692 13956 13953 1
11693 13957 13956 1
11694 13959 13958 1
11695 13960 13959 1
11696 13961 13959 1
11697 13962 13959 1
11698 13963 13962 1
11699 13965 13964 1
11700 13966 13965 1
11701 13967 13965 1
11702 13968 13965 1
11703 13969 13968 1
11704 13971 13970 1
11705 13972 13971 1
11706 13973 13971 1
11707 13974 13971 1
11708 13975 13974 1
11709 13977 13976 1
11710 13978 13977 1
11711 13979 13977 1
11712 13980 13977 1
11713 13981 13980 1
11714 13983 13982 1
11715 13984 13983 1
11716 13985 13983 1
11717 13986 13983 1
11718 13987 13986 1
11719 13989 13988 1
11720 13990 13989 1
11721 13991 13989 1
11722 13992 13989 1
11723 13993 13992 1
11724 13995 13994 1
11725 13996 13995 1
11726 13997 13995 1
11727 13998 13995 1
11728 13999 13998 1
11729 14001 14000 1
11730 14002 14001 1
11731 14003 14001 1
11732 14004 14001 1
11733 14005 14004 1
11734 14007 14006 1
11735 14008 14007 1
11736 14009 14007 1
11737 14010 14007 1
11738 14011 14010 1
11739 14013 14012 1
11740 14014 14013 1
11741 14015 14013 1
11742 14016 14013 1
11743 14017 14016 1
11744 14019 14018 1
11745 14020 14019 1
11746 14021 14019 1
11747 14022 14019 1
11748 14023 14022 1
11749 14025 14024 1
11750 14026 14025 1
11751 14027 14025 1
11752 14028 14025 1
11753 14029 14028 1
11754 14031 14030 1
11755 14032 14031 1
11756 14033 14031 1
11757 14034 14031 1
11758 14035 14034 1
11759 14037 14036 1
11760 14038 14037 1
11761 14039 14037 1
11762 14040 14037 1
11763 14041 14040 1
11764 14043 14042 1
11765 14044 14043 1
11766 14045 14043 1
11767 14046 14043 1
11768 14047 14046 1
11769 14049 14048 1
11770 14050 14049 1
11771 14051 14049 1
11772 14052 14049 1
11773 14053 14052 1
11774 14055 14054 1
11775 14056 14055 1
11776 14057 14055 1
11777 14058 14055 1
11778 14059 14058 1
11779 14061 14060 1
11780 14062 14061 1
11781 14063 14061 1
11782 14064 14061 1
11783 14065 14064 1
11784 14067 14066 1
11785 14068 14067 1
11786 14069 14067 1
11787 14070 14067 1
11788 14071 14070 1
11789 14073 14072 1
11790 14074 14073 1
11791 14075 14073 1
11792 14076 14073 1
11793 14077 14076 1
11794 14079 14078 1
11795 14080 14079 1
11796 14081 14079 1
11797 14082 14079 1
11798 14083 14082 1
11799 14085 14084 1
11800 14086 14085 1
11801 14087 14085 1
11802 14088 14085 1
11803 14089 14088 1
11804 14091 14090 1
11805 14092 14091 1
11806 14093 14091 1
11807 14094 14091 1
11808 14095 14094 1
11809 14097 14096 1
11810 14098 14097 1
11811 14099 14097 1
11812 14100 14097 1
11813 14101 14100 1
11814 14103 14102 1
11815 14104 14103 1
11816 14105 14103 1
11817 14106 14103 1
11818 14107 14106 1
11819 14109 14108 1
11820 14110 14109 1
11821 14111 14109 1
11822 14112 14109 1
11823 14113 14112 1
11824 14115 14114 1
11825 14116 14115 1
11826 14117 14115 1
11827 14118 14115 1
11828 14119 14118 1
11829 14121 14120 1
11830 14122 14121 1
11831 14123 14121 1
11832 14124 14121 1
11833 14125 14124 1
11834 14127 14126 1
11835 14128 14127 1
11836 14129 14127 1
11837 14130 14127 1
11838 14131 14130 1
11839 14133 14132 1
11840 14134 14133 1
11841 14135 14133 1
11842 14136 14133 1
11843 14137 14136 1
11844 14139 14138 1
11845 14140 14139 1
11846 14141 14139 1
11847 14142 14139 1
11848 14143 14142 1
11849 14145 14144 1
11850 14146 14145 1
11851 14147 14145 1
11852 14148 14145 1
11853 14149 14148 1
11854 14151 14150 1
11855 14152 14151 1
11856 14153 14151 1
11857 14154 14151 1
11858 14155 14154 1
11859 14157 14156 1
11860 14158 14157 1
11861 14159 14157 1
11862 14160 14157 1
11863 14161 14160 1
11864 14163 14162 1
11865 14164 14163 1
11866 14165 14163 1
11867 14166 14163 1
11868 14167 14166 1
11869 14169 14168 1
11870 14170 14169 1
11871 14171 14169 1
11872 14172 14169 1
11873 14173 14172 1
11874 14175 14174 1
11875 14176 14175 1
11876 14177 14175 1
11877 14178 14175 1
11878 14179 14178 1
11879 14181 14180 1
11880 14182 14181 1
11881 14183 14181 1
11882 14184 14181 1
11883 14185 14184 1
11884 14187 14186 1
11885 14188 14187 1
11886 14189 14187 1
11887 14190 14187 1
11888 14191 14190 1
11889 14193 14192 1
11890 14194 14193 1
11891 14195 14193 1
11892 14196 14193 1
11893 14197 14196 1
11894 14199 14198 1
11895 14200 14199 1
11896 14201 14199 1
11897 14202 14199 1
11898 14203 14202 1
11899 14205 14204 1
11900 14206 14205 1
11901 14207 14205 1
11902 14208 14205 1
11903 14209 14208 1
11904 14211 14210 1
11905 14212 14211 1
11906 14213 14211 1
11907 14214 14211 1
11908 14215 14214 1
11909 14217 14216 1
11910 14218 14217 1
11911 14219 14217 1
11912 14220 14217 1
11913 14221 14220 1
11914 14223 14222 1
11915 14224 14223 1
11916 14225 14223 1
11917 14226 14223 1
11918 14227 14226 1
11919 14229 14228 1
11920 14230 14229 1
11921 14231 14229 1
11922 14232 14229 1
11923 14233 14232 1
11924 14235 14234 1
11925 14236 14235 1
11926 14237 14235 1
11927 14238 14235 1
11928 14239 14238 1
11929 14241 14240 1
11930 14242 14241 1
11931 14243 14241 1
11932 14244 14241 1
11933 14245 14244 1
11934 14247 14246 1
11935 14248 14247 1
11936 14249 14247 1
11937 14250 14247 1
11938 14251 14250 1
11939 14253 14252 1
11940 14254 14253 1
11941 14255 14253 1
11942 14256 14253 1
11943 14257 14256 1
11944 14259 14258 1
11945 14260 14259 1
11946 14261 14259 1
11947 14262 14259 1
11948 14263 14262 1
11949 14265 14264 1
11950 14266 14265 1
11951 14267 14265 1
11952 14268 14265 1
11953 14269 14268 1
11954 14271 14270 1
11955 14272 14271 1
11956 14273 14271 1
11957 14274 14271 1
11958 14275 14274 1
11959 14277 14276 1
11960 14278 14277 1
11961 14279 14277 1
11962 14280 14277 1
11963 14281 14280 1
11964 14283 14282 1
11965 14284 14283 1
11966 14285 14283 1
11967 14286 14283 1
11968 14287 14286 1
11969 14289 14288 1
11970 14290 14289 1
11971 14291 14289 1
11972 14292 14289 1
11973 14293 14292 1
11974 14295 14294 1
11975 14296 14295 1
11976 14297 14295 1
11977 14298 14295 1
11978 14299 14298 1
11979 14301 14300 1
11980 14302 14301 1
11981 14303 14301 1
11982 14304 14301 1
11983 14305 14304 1
11984 14307 14306 1
11985 14308 14307 1
11986 14309 14307 1
11987 14310 14307 1
11988 14311 14310 1
11989 14313 14312 1
11990 14314 14313 1
11991 14315 14313 1
11992 14316 14313 1
11993 14317 14316 1
11994 14319 14318 1
11995 14320 14319 1
11996 14321 14319 1
11997 14322 14319 1
11998 14323 14322 1
11999 14325 14324 1
12000 14326 14325 1
12001 14327 14325 1
12002 14328 14325 1
12003 14329 14328 1
12004 14331 14330 1
12005 14332 14331 1
12006 14333 14331 1
12007 14334 14331 1
12008 14335 14334 1
12009 14337 14336 1
12010 14338 14337 1
12011 14339 14337 1
12012 14340 14337 1
12013 14341 14340 1
12014 14343 14342 1
12015 14344 14343 1
12016 14345 14343 1
12017 14346 14343 1
12018 14347 14346 1
12019 14349 14348 1
12020 14350 14349 1
12021 14351 14349 1
12022 14352 14349 1
12023 14353 14352 1
12024 14355 14354 1
12025 14356 14355 1
12026 14357 14355 1
12027 14358 14355 1
12028 14359 14358 1
12029 14361 14360 1
12030 14362 14361 1
12031 14363 14361 1
12032 14364 14361 1
12033 14365 14364 1
12034 14367 14366 1
12035 14368 14367 1
12036 14369 14367 1
12037 14370 14367 1
12038 14371 14370 1
12039 14373 14372 1
12040 14374 14373 1
12041 14375 14373 1
12042 14376 14373 1
12043 14377 14376 1
12044 14379 14378 1
12045 14380 14379 1
12046 14381 14379 1
12047 14382 14379 1
12048 14383 14382 1
12049 14385 14384 1
12050 14386 14385 1
12051 14387 14385 1
12052 14388 14385 1
12053 14389 14388 1
12054 14391 14390 1
12055 14392 14391 1
12056 14393 14391 1
12057 14394 14391 1
12058 14395 14394 1
12059 14397 14396 1
12060 14398 14397 1
12061 14399 14397 1
12062 14400 14397 1
12063 14401 14400 1
12064 14403 14402 1
12065 14404 14403 1
12066 14405 14403 1
12067 14406 14403 1
12068 14407 14406 1
12069 14409 14408 1
12070 14410 14409 1
12071 14411 14409 1
12072 14412 14409 1
12073 14413 14412 1
12074 14415 14414 1
12075 14416 14415 1
12076 14417 14415 1
12077 14418 14415 1
12078 14419 14418 1
12079 14421 14420 1
12080 14422 14421 1
12081 14423 14421 1
12082 14424 14421 1
12083 14425 14424 1
12084 14427 14426 1
12085 14428 14427 1
12086 14429 14427 1
12087 14430 14427 1
12088 14431 14430 1
12089 14433 14432 1
12090 14434 14433 1
12091 14435 14433 1
12092 14436 14433 1
12093 14437 14436 1
12094 14439 14438 1
12095 14440 14439 1
12096 14441 14439 1
12097 14442 14439 1
12098 14443 14442 1
12099 14445 14444 1
12100 14446 14445 1
12101 14447 14445 1
12102 14448 14445 1
12103 14449 14448 1
12104 14451 14450 1
12105 14452 14451 1
12106 14453 14451 1
12107 14454 14451 1
12108 14455 14454 1
12109 14457 14456 1
12110 14458 14457 1
12111 14459 14457 1
12112 14460 14457 1
12113 14461 14460 1
12114 14463 14462 1
12115 14464 14463 1
12116 14465 14463 1
12117 14466 14463 1
12118 14467 14466 1
12119 14469 14468 1
12120 14470 14469 1
12121 14471 14469 1
12122 14472 14469 1
12123 14473 14472 1
12124 14475 14474 1
12125 14476 14475 1
12126 14477 14475 1
12127 14478 14475 1
12128 14479 14478 1
12129 14481 14480 1
12130 14482 14481 1
12131 14483 14481 1
12132 14484 14481 1
12133 14485 14484 1
12134 14487 14486 1
12135 14488 14487 1
12136 14489 14487 1
12137 14490 14487 1
12138 14491 14490 1
12139 14493 14492 1
12140 14494 14493 1
12141 14495 14493 1
12142 14496 14493 1
12143 14497 14496 1
12144 14499 14498 1
12145 14500 14499 1
12146 14501 14499 1
12147 14502 14499 1
12148 14503 14502 1
12149 14505 14504 1
12150 14506 14505 1
12151 14507 14505 1
12152 14508 14505 1
12153 14509 14508 1
12154 14511 14510 1
12155 14512 14511 1
12156 14513 14511 1
12157 14514 14511 1
12158 14515 14514 1
12159 14517 14516 1
12160 14518 14517 1
12161 14519 14517 1
12162 14520 14517 1
12163 14521 14520 1
12164 14523 14522 1
12165 14524 14523 1
12166 14525 14523 1
12167 14526 14523 1
12168 14527 14526 1
12169 14529 14528 1
12170 14530 14529 1
12171 14531 14529 1
12172 14532 14529 1
12173 14533 14532 1
12174 14535 14534 1
12175 14536 14535 1
12176 14537 14535 1
12177 14538 14535 1
12178 14539 14538 1
12179 14541 14540 1
12180 14542 14541 1
12181 14543 14541 1
12182 14544 14541 1
12183 14545 14544 1
12184 14547 14546 1
12185 14548 14547 1
12186 14549 14547 1
12187 14550 14547 1
12188 14551 14550 1
12189 14553 14552 1
12190 14554 14553 1
12191 14555 14553 1
12192 14556 14553 1
12193 14557 14556 1
12194 14559 14558 1
12195 14560 14559 1
12196 14561 14559 1
12197 14562 14559 1
12198 14563 14562 1
12199 14565 14564 1
12200 14566 14565 1
12201 14567 14565 1
12202 14568 14565 1
12203 14569 14568 1
12204 14571 14570 1
12205 14572 14571 1
12206 14573 14571 1
12207 14574 14571 1
12208 14575 14574 1
12209 14577 14576 1
12210 14578 14577 1
12211 14579 14577 1
12212 14580 14577 1
12213 14581 14580 1
12214 14583 14582 1
12215 14584 14583 1
12216 14585 14583 1
12217 14586 14583 1
12218 14587 14586 1
12219 14589 14588 1
12220 14590 14589 1
12221 14591 14589 1
12222 14592 14589 1
12223 14593 14592 1
12224 14595 14594 1
12225 14596 14595 1
12226 14597 14595 1
12227 14598 14595 1
12228 14599 14598 1
12229 14601 14600 1
12230 14602 14601 1
12231 14603 14601 1
12232 14604 14601 1
12233 14605 14604 1
12234 14607 14606 1
12235 14608 14607 1
12236 14609 14607 1
12237 14610 14607 1
12238 14611 14610 1
12239 14613 14612 1
12240 14614 14613 1
12241 14615 14613 1
12242 14616 14613 1
12243 14617 14616 1
12244 14619 14618 1
12245 14620 14619 1
12246 14621 14619 1
12247 14622 14619 1
12248 14623 14622 1
12249 14625 14624 1
12250 14626 14625 1
12251 14627 14625 1
12252 14628 14625 1
12253 14629 14628 1
12254 14631 14630 1
12255 14632 14631 1
12256 14633 14631 1
12257 14634 14631 1
12258 14635 14634 1
12259 14637 14636 1
12260 14638 14637 1
12261 14639 14637 1
12262 14640 14637 1
12263 14641 14640 1
12264 14643 14642 1
12265 14644 14643 1
12266 14645 14643 1
12267 14646 14643 1
12268 14647 14646 1
12269 14649 14648 1
12270 14650 14649 1
12271 14651 14649 1
12272 14652 14649 1
12273 14653 14652 1
12274 14655 14654 1
12275 14656 14655 1
12276 14657 14655 1
12277 14658 14655 1
12278 14659 14658 1
12279 14661 14660 1
12280 14662 14661 1
12281 14663 14661 1
12282 14664 14661 1
12283 14665 14664 1
12284 14667 14666 1
12285 14668 14667 1
12286 14669 14667 1
12287 14670 14667 1
12288 14671 14670 1
12289 14673 14672 1
12290 14674 14673 1
12291 14675 14673 1
12292 14676 14673 1
12293 14677 14676 1
12294 14679 14678 1
12295 14680 14679 1
12296 14681 14679 1
12297 14682 14679 1
12298 14683 14682 1
12299 14685 14684 1
12300 14686 14685 1
12301 14687 14685 1
12302 14688 14685 1
12303 14689 14688 1
12304 14691 14690 1
12305 14692 14691 1
12306 14693 14691 1
12307 14694 14691 1
12308 14695 14694 1
12309 14697 14696 1
12310 14698 14697 1
12311 14699 14697 1
12312 14700 14697 1
12313 14701 14700 1
12314 14703 14702 1
12315 14704 14703 1
12316 14705 14703 1
12317 14706 14703 1
12318 14707 14706 1
12319 14709 14708 1
12320 14710 14709 1
12321 14711 14709 1
12322 14712 14709 1
12323 14713 14712 1
12324 14715 14714 1
12325 14716 14715 1
12326 14717 14715 1
12327 14718 14715 1
12328 14719 14718 1
12329 14721 14720 1
12330 14722 14721 1
12331 14723 14721 1
12332 14724 14721 1
12333 14725 14724 1
12334 14727 14726 1
12335 14728 14727 1
12336 14729 14727 1
12337 14730 14727 1
12338 14731 14730 1
12339 14733 14732 1
12340 14734 14733 1
12341 14735 14733 1
12342 14736 14733 1
12343 14737 14736 1
12344 14739 14738 1
12345 14740 14739 1
12346 14741 14739 1
12347 14742 14739 1
12348 14743 14742 1
12349 14745 14744 1
12350 14746 14745 1
12351 14747 14745 1
12352 14748 14745 1
12353 14749 14748 1
12354 14751 14750 1
12355 14752 14751 1
12356 14753 14751 1
12357 14754 14751 1
12358 14755 14754 1
12359 14757 14756 1
12360 14758 14757 1
12361 14759 14757 1
12362 14760 14757 1
12363 14761 14760 1
12364 14763 14762 1
12365 14764 14763 1
12366 14765 14763 1
12367 14766 14763 1
12368 14767 14766 1
12369 14769 14768 1
12370 14770 14769 1
12371 14771 14769 1
12372 14772 14769 1
12373 14773 14772 1
12374 14775 14774 1
12375 14776 14775 1
12376 14777 14775 1
12377 14778 14775 1
12378 14779 14778 1
12379 14781 14780 1
12380 14782 14781 1
12381 14783 14781 1
12382 14784 14781 1
12383 14785 14784 1
12384 14787 14786 1
12385 14788 14787 1
12386 14789 14787 1
12387 14790 14787 1
12388 14791 14790 1
12389 14793 14792 1
12390 14794 14793 1
12391 14795 14793 1
12392 14796 14793 1
12393 14797 14796 1
12394 14799 14798 1
12395 14800 14799 1
12396 14801 14799 1
12397 14802 14799 1
12398 14803 14802 1
12399 14805 14804 1
12400 14806 14805 1
12401 14807 14805 1
12402 14808 14805 1
12403 14809 14808 1
12404 14811 14810 1
12405 14812 14811 1
12406 14813 14811 1
12407 14814 14811 1
12408 14815 14814 1
12409 14817 14816 1
12410 14818 14817 1
12411 14819 14817 1
12412 14820 14817 1
12413 14821 14820 1
12414 14823 14822 1
12415 14824 14823 1
12416 14825 14823 1
12417 14826 14823 1
12418 14827 14826 1
12419 14829 14828 1
12420 14830 14829 1
12421 14831 14829 1
12422 14832 14829 1
12423 14833 14832 1
12424 14835 14834 1
12425 14836 14835 1
12426 14837 14835 1
12427 14838 14835 1
12428 14839 14838 1
12429 14841 14840 1
12430 14842 14841 1
12431 14843 14841 1
12432 14844 14841 1
12433 14845 14844 1
12434 14847 14846 1
12435 14848 14847 1
12436 14849 14847 1
12437 14850 14847 1
12438 14851 14850 1
12439 14853 14852 1
12440 14854 14853 1
12441 14855 14853 1
12442 14856 14853 1
12443 14857 14856 1
12444 14859 14858 1
12445 14860 14859 1
12446 14861 14859 1
12447 14862 14859 1
12448 14863 14862 1
12449 14865 14864 1
12450 14866 14865 1
12451 14867 14865 1
12452 14868 14865 1
12453 14869 14868 1
12454 14871 14870 1
12455 14872 14871 1
12456 14873 14871 1
12457 14874 14871 1
12458 14875 14874 1
12459 14877 14876 1
12460 14878 14877 1
12461 14879 14877 1
12462 14880 14877 1
12463 14881 14880 1
12464 14883 14882 1
12465 14884 14883 1
12466 14885 14883 1
12467 14886 14883 1
12468 14887 14886 1
12469 14889 14888 1
12470 14890 14889 1
12471 14891 14889 1
12472 14892 14889 1
12473 14893 14892 1
12474 14895 14894 1
12475 14896 14895 1
12476 14897 14895 1
12477 14898 14895 1
12478 14899 14898 1
12479 14901 14900 1
12480 14902 14901 1
12481 14903 14901 1
12482 14904 14901 1
12483 14905 14904 1
12484 14907 14906 1
12485 14908 14907 1
12486 14909 14907 1
12487 14910 14907 1
12488 14911 14910 1
12489 14913 14912 1
12490 14914 14913 1
12491 14915 14913 1
12492 14916 14913 1
12493 14917 14916 1
12494 14919 14918 1
12495 14920 14919 1
12496 14921 14919 1
12497 14922 14919 1
12498 14923 14922 1
12499 14925 14924 1
12500 14926 14925 1
12501 14927 14925 1
12502 14928 14925 1
12503 14929 14928 1
12504 14931 14930 1
12505 14932 14931 1
12506 14933 14931 1
12507 14934 14931 1
12508 14935 14934 1
12509 14937 14936 1
12510 14938 14937 1
12511 14939 14937 1
12512 14940 14937 1
12513 14941 14940 1
12514 14943 14942 1
12515 14944 14943 1
12516 14945 14943 1
12517 14946 14943 1
12518 14947 14946 1
12519 14949 14948 1
12520 14950 14949 1
12521 14951 14949 1
12522 14952 14949 1
12523 14953 14952 1
12524 14955 14954 1
12525 14956 14955 1
12526 14957 14955 1
12527 14958 14955 1
12528 14959 14958 1
12529 14961 14960 1
12530 14962 14961 1
12531 14963 14961 1
12532 14964 14961 1
12533 14965 14964 1
12534 14967 14966 1
12535 14968 14967 1
12536 14969 14967 1
12537 14970 14967 1
12538 14971 14970 1
12539 14973 14972 1
12540 14974 14973 1
12541 14975 14973 1
12542 14976 14973 1
12543 14977 14976 1
12544 14979 14978 1
12545 14980 14979 1
12546 14981 14979 1
12547 14982 14979 1
12548 14983 14982 1
12549 14985 14984 1
12550 14986 14985 1
12551 14987 14985 1
12552 14988 14985 1
12553 14989 14988 1
12554 14991 14990 1
12555 14992 14991 1
12556 14993 14991 1
12557 14994 14991 1
12558 14995 14994 1
12559 14997 14996 1
12560 14998 14997 1
12561 14999 14997 1
12562 15000 14997 1
12563 15001 15000 1
12564 15003 15002 1
12565 15004 15003 1
12566 15005 15003 1
12567 15006 15003 1
12568 15007 15006 1
12569 15009 15008 1
12570 15010 15009 1
12571 15011 15009 1
12572 15012 15009 1
12573 15013 15012 1
12574 15015 15014 1
12575 15016 15015 1
12576 15017 15015 1
12577 15018 15015 1
12578 15019 15018 1
12579 15021 15020 1
12580 15022 15021 1
12581 15023 15021 1
12582 15024 15021 1
12583 15025 15024 1
12584 15027 15026 1
12585 15028 15027 1
12586 15029 15027 1
12587 15030 15027 1
12588 15031 15030 1
12589 15033 15032 1
12590 15034 15033 1
12591 15035 15033 1
12592 15036 15033 1
12593 15037 15036 1
12594 15039 15038 1
12595 15040 15039 1
12596 15041 15039 1
12597 15042 15039 1
12598 15043 15042 1
12599 15045 15044 1
12600 15046 15045 1
12601 15047 15045 1
12602 15048 15045 1
12603 15049 15048 1
12604 15051 15050 1
12605 15052 15051 1
12606 15053 15051 1
12607 15054 15051 1
12608 15055 15054 1
12609 15057 15056 1
12610 15058 15057 1
12611 15059 15057 1
12612 15060 15057 1
12613 15061 15060 1
12614 15063 15062 1
12615 15064 15063 1
12616 15065 15063 1
12617 15066 15063 1
12618 15067 15066 1
12619 15069 15068 1
12620 15070 15069 1
12621 15071 15069 1
12622 15072 15069 1
12623 15073 15072 1
12624 15075 15074 1
12625 15076 15075 1
12626 15077 15075 1
12627 15078 15075 1
12628 15079 15078 1
12629 15081 15080 1
12630 15082 15081 1
12631 15083 15081 1
12632 15084 15081 1
12633 15085 15084 1
12634 15087 15086 1
12635 15088 15087 1
12636 15089 15087 1
12637 15090 15087 1
12638 15091 15090 1
12639 15093 15092 1
12640 15094 15093 1
12641 15095 15093 1
12642 15096 15093 1
12643 15097 15096 1
12644 15099 15098 1
12645 15100 15099 1
12646 15101 15099 1
12647 15102 15099 1
12648 15103 15102 1
12649 15105 15104 1
12650 15106 15105 1
12651 15107 15105 1
12652 15108 15105 1
12653 15109 15108 1
12654 15111 15110 1
12655 15112 15111 1
12656 15113 15111 1
12657 15114 15111 1
12658 15115 15114 1
12659 15117 15116 1
12660 15118 15117 1
12661 15119 15117 1
12662 15120 15117 1
12663 15121 15120 1
12664 15123 15122 1
12665 15124 15123 1
12666 15125 15123 1
12667 15126 15123 1
12668 15127 15126 1
12669 15129 15128 1
12670 15130 15129 1
12671 15131 15129 1
12672 15132 15129 1
12673 15133 15132 1
12674 15135 15134 1
12675 15136 15135 1
12676 15137 15135 1
12677 15138 15135 1
12678 15139 15138 1
12679 15141 15140 1
12680 15142 15141 1
12681 15143 15141 1
12682 15144 15141 1
12683 15145 15144 1
12684 15147 15146 1
12685 15148 15147 1
12686 15149 15147 1
12687 15150 15147 1
12688 15151 15150 1
12689 15153 15152 1
12690 15154 15153 1
12691 15155 15153 1
12692 15156 15153 1
12693 15157 15156 1
12694 15159 15158 1
12695 15160 15159 1
12696 15161 15159 1
12697 15162 15159 1
12698 15163 15162 1
12699 15165 15164 1
12700 15166 15165 1
12701 15167 15165 1
12702 15168 15165 1
12703 15169 15168 1
12704 15171 15170 1
12705 15172 15171 1
12706 15173 15171 1
12707 15174 15171 1
12708 15175 15174 1
12709 15177 15176 1
12710 15178 15177 1
12711 15179 15177 1
12712 15180 15177 1
12713 15181 15180 1
12714 15183 15182 1
12715 15184 15183 1
12716 15185 15183 1
12717 15186 15183 1
12718 15187 15186 1
12719 15189 15188 1
12720 15190 15189 1
12721 15191 15189 1
12722 15192 15189 1
12723 15193 15192 1
12724 15195 15194 1
12725 15196 15195 1
12726 15197 15195 1
12727 15198 15195 1
12728 15199 15198 1
@<TRIPOS>SUBSTRUCTURE
      1  XAP              1 ****               0 ****  **** 
      2 rAPO             14 ****               0 ****  **** 
      3 rPOO             65 ****               0 ****  **** 
      4 rOOO            113 ****               0 ****  **** 
      5 rOOO            161 ****               0 ****  **** 
      6 rOOP            209 ****               0 ****  **** 
      7 rOPO            257 ****               0 ****  **** 
      8 rPOT            308 ****               0 ****  **** 
      9 rOTX            353 ****               0 ****  **** 
     10  DNI            371 ****               0 ****  **** 
     11  Cl-            378 ****               0 ****  **** 
     12  Cl-            379 ****               0 ****  **** 
     13  MOH            380 ****               0 ****  **** 
     14  MOH            386 ****               0 ****  **** 
     15  MOH            392 ****               0 ****  **** 
     16  MOH            398 ****               0 ****  **** 
     17  MOH            404 ****               0 ****  **** 
     18  MOH            410 ****               0 ****  **** 
     19  MOH            416 ****               0 ****  **** 
     20  MOH            422 ****               0 ****  **** 
     21  MOH            428 ****               0 ****  **** 
     22  MOH            434 ****               0 ****  **** 
     23  MOH            440 ****               0 ****  **** 
     24  MOH            446 ****               0 ****  **** 
     25  MOH            452 ****               0 ****  **** 
     26  MOH            458 ****               0 ****  **** 
     27  MOH            464 ****               0 ****  **** 
     28  MOH            470 ****               0 ****  **** 
     29  MOH            476 ****               0 ****  **** 
     30  MOH            482 ****               0 ****  **** 
     31  MOH            488 ****               0 ****  **** 
     32  MOH            494 ****               0 ****  **** 
     33  MOH            500 ****               0 ****  **** 
     34  MOH            506 ****               0 ****  **** 
     35  MOH            512 ****               0 ****  **** 
     36  MOH            518 ****               0 ****  **** 
     37  MOH            524 ****               0 ****  **** 
     38  MOH            530 ****               0 ****  **** 
     39  MOH            536 ****               0 ****  **** 
     40  MOH            542 ****               0 ****  **** 
     41  MOH            548 ****               0 ****  **** 
     42  MOH            554 ****               0 ****  **** 
     43  MOH            560 ****               0 ****  **** 
     44  MOH            566 ****               0 ****  **** 
     45  MOH            572 ****               0 ****  **** 
     46  MOH            578 ****               0 ****  **** 
     47  MOH            584 ****               0 ****  **** 
     48  MOH            590 ****               0 ****  **** 
     49  MOH            596 ****               0 ****  **** 
     50  MOH            602 ****               0 ****  **** 
     51  MOH            608 ****               0 ****  **** 
     52  MOH            614 ****               0 ****  **** 
     53  MOH            620 ****               0 ****  **** 
     54  MOH            626 ****               0 ****  **** 
     55  MOH            632 ****               0 ****  **** 
     56  MOH            638 ****               0 ****  **** 
     57  MOH            644 ****               0 ****  **** 
     58  MOH            650 ****               0 ****  **** 
     59  MOH            656 ****               0 ****  **** 
     60  MOH            662 ****               0 ****  **** 
     61  MOH            668 ****               0 ****  **** 
     62  MOH            674 ****               0 ****  **** 
     63  MOH            680 ****               0 ****  **** 
     64  MOH            686 ****               0 ****  **** 
     65  MOH            692 ****               0 ****  **** 
     66  MOH            698 ****               0 ****  **** 
     67  MOH            704 ****               0 ****  **** 
     68  MOH            710 ****               0 ****  **** 
     69  MOH            716 ****               0 ****  **** 
     70  MOH            722 ****               0 ****  **** 
     71  MOH            728 ****               0 ****  **** 
     72  MOH            734 ****               0 ****  **** 
     73  MOH            740 ****               0 ****  **** 
     74  MOH            746 ****               0 ****  **** 
     75  MOH            752 ****               0 ****  **** 
     76  MOH            758 ****               0 ****  **** 
     77  MOH            764 ****               0 ****  **** 
     78  MOH            770 ****               0 ****  **** 
     79  MOH            776 ****               0 ****  **** 
     80  MOH            782 ****               0 ****  **** 
     81  MOH            788 ****               0 ****  **** 
     82  MOH            794 ****               0 ****  **** 
     83  MOH            800 ****               0 ****  **** 
     84  MOH            806 ****               0 ****  **** 
     85  MOH            812 ****               0 ****  **** 
     86  MOH            818 ****               0 ****  **** 
     87  MOH            824 ****               0 ****  **** 
     88  MOH            830 ****               0 ****  **** 
     89  MOH            836 ****               0 ****  **** 
     90  MOH            842 ****               0 ****  **** 
     91  MOH            848 ****               0 ****  **** 
     92  MOH            854 ****               0 ****  **** 
     93  MOH            860 ****               0 ****  **** 
     94  MOH            866 ****               0 ****  **** 
     95  MOH            872 ****               0 ****  **** 
     96  MOH            878 ****               0 ****  **** 
     97  MOH            884 ****               0 ****  **** 
     98  MOH            890 ****               0 ****  **** 
     99  MOH            896 ****               0 ****  **** 
    100  MOH            902 ****               0 ****  **** 
    101  MOH            908 ****               0 ****  **** 
    102  MOH            914 ****               0 ****  **** 
    103  MOH            920 ****               0 ****  **** 
    104  MOH            926 ****               0 ****  **** 
    105  MOH            932 ****               0 ****  **** 
    106  MOH            938 ****               0 ****  **** 
    107  MOH            944 ****               0 ****  **** 
    108  MOH            950 ****               0 ****  **** 
    109  MOH            956 ****               0 ****  **** 
    110  MOH            962 ****               0 ****  **** 
    111  MOH            968 ****               0 ****  **** 
    112  MOH            974 ****               0 ****  **** 
    113  MOH            980 ****               0 ****  **** 
    114  MOH            986 ****               0 ****  **** 
    115  MOH            992 ****               0 ****  **** 
    116  MOH            998 ****               0 ****  **** 
    117  MOH           1004 ****               0 ****  **** 
    118  MOH           1010 ****               0 ****  **** 
    119  MOH           1016 ****               0 ****  **** 
    120  MOH           1022 ****               0 ****  **** 
    121  MOH           1028 ****               0 ****  **** 
    122  MOH           1034 ****               0 ****  **** 
    123  MOH           1040 ****               0 ****  **** 
    124  MOH           1046 ****               0 ****  **** 
    125  MOH           1052 ****               0 ****  **** 
    126  MOH           1058 ****               0 ****  **** 
    127  MOH           1064 ****               0 ****  **** 
    128  MOH           1070 ****               0 ****  **** 
    129  MOH           1076 ****               0 ****  **** 
    130  MOH           1082 ****               0 ****  **** 
    131  MOH           1088 ****               0 ****  **** 
    132  MOH           1094 ****               0 ****  **** 
    133  MOH           1100 ****               0 ****  **** 
    134  MOH           1106 ****               0 ****  **** 
    135  MOH           1112 ****               0 ****  **** 
    136  MOH           1118 ****               0 ****  **** 
    137  MOH           1124 ****               0 ****  **** 
    138  MOH           1130 ****               0 ****  **** 
    139  MOH           1136 ****               0 ****  **** 
    140  MOH           1142 ****               0 ****  **** 
    141  MOH           1148 ****               0 ****  **** 
    142  MOH           1154 ****               0 ****  **** 
    143  MOH           1160 ****               0 ****  **** 
    144  MOH           1166 ****               0 ****  **** 
    145  MOH           1172 ****               0 ****  **** 
    146  MOH           1178 ****               0 ****  **** 
    147  MOH           1184 ****               0 ****  **** 
    148  MOH           1190 ****               0 ****  **** 
    149  MOH           1196 ****               0 ****  **** 
    150  MOH           1202 ****               0 ****  **** 
    151  MOH           1208 ****               0 ****  **** 
    152  MOH           1214 ****               0 ****  **** 
    153  MOH           1220 ****               0 ****  **** 
    154  MOH           1226 ****               0 ****  **** 
    155  MOH           1232 ****               0 ****  **** 
    156  MOH           1238 ****               0 ****  **** 
    157  MOH           1244 ****               0 ****  **** 
    158  MOH           1250 ****               0 ****  **** 
    159  MOH           1256 ****               0 ****  **** 
    160  MOH           1262 ****               0 ****  **** 
    161  MOH           1268 ****               0 ****  **** 
    162  MOH           1274 ****               0 ****  **** 
    163  MOH           1280 ****               0 ****  **** 
    164  MOH           1286 ****               0 ****  **** 
    165  MOH           1292 ****               0 ****  **** 
    166  MOH           1298 ****               0 ****  **** 
    167  MOH           1304 ****               0 ****  **** 
    168  MOH           1310 ****               0 ****  **** 
    169  MOH           1316 ****               0 ****  **** 
    170  MOH           1322 ****               0 ****  **** 
    171  MOH           1328 ****               0 ****  **** 
    172  MOH           1334 ****               0 ****  **** 
    173  MOH           1340 ****               0 ****  **** 
    174  MOH           1346 ****               0 ****  **** 
    175  MOH           1352 ****               0 ****  **** 
    176  MOH           1358 ****               0 ****  **** 
    177  MOH           1364 ****               0 ****  **** 
    178  MOH           1370 ****               0 ****  **** 
    179  MOH           1376 ****               0 ****  **** 
    180  MOH           1382 ****               0 ****  **** 
    181  MOH           1388 ****               0 ****  **** 
    182  MOH           1394 ****               0 ****  **** 
    183  MOH           1400 ****               0 ****  **** 
    184  MOH           1406 ****               0 ****  **** 
    185  MOH           1412 ****               0 ****  **** 
    186  MOH           1418 ****               0 ****  **** 
    187  MOH           1424 ****               0 ****  **** 
    188  MOH           1430 ****               0 ****  **** 
    189  MOH           1436 ****               0 ****  **** 
    190  MOH           1442 ****               0 ****  **** 
    191  MOH           1448 ****               0 ****  **** 
    192  MOH           1454 ****               0 ****  **** 
    193  MOH           1460 ****               0 ****  **** 
    194  MOH           1466 ****               0 ****  **** 
    195  MOH           1472 ****               0 ****  **** 
    196  MOH           1478 ****               0 ****  **** 
    197  MOH           1484 ****               0 ****  **** 
    198  MOH           1490 ****               0 ****  **** 
    199  MOH           1496 ****               0 ****  **** 
    200  MOH           1502 ****               0 ****  **** 
    201  MOH           1508 ****               0 ****  **** 
    202  MOH           1514 ****               0 ****  **** 
    203  MOH           1520 ****               0 ****  **** 
    204  MOH           1526 ****               0 ****  **** 
    205  MOH           1532 ****               0 ****  **** 
    206  MOH           1538 ****               0 ****  **** 
    207  MOH           1544 ****               0 ****  **** 
    208  MOH           1550 ****               0 ****  **** 
    209  MOH           1556 ****               0 ****  **** 
    210  MOH           1562 ****               0 ****  **** 
    211  MOH           1568 ****               0 ****  **** 
    212  MOH           1574 ****               0 ****  **** 
    213  MOH           1580 ****               0 ****  **** 
    214  MOH           1586 ****               0 ****  **** 
    215  MOH           1592 ****               0 ****  **** 
    216  MOH           1598 ****               0 ****  **** 
    217  MOH           1604 ****               0 ****  **** 
    218  MOH           1610 ****               0 ****  **** 
    219  MOH           1616 ****               0 ****  **** 
    220  MOH           1622 ****               0 ****  **** 
    221  MOH           1628 ****               0 ****  **** 
    222  MOH           1634 ****               0 ****  **** 
    223  MOH           1640 ****               0 ****  **** 
    224  MOH           1646 ****               0 ****  **** 
    225  MOH           1652 ****               0 ****  **** 
    226  MOH           1658 ****               0 ****  **** 
    227  MOH           1664 ****               0 ****  **** 
    228  MOH           1670 ****               0 ****  **** 
    229  MOH           1676 ****               0 ****  **** 
    230  MOH           1682 ****               0 ****  **** 
    231  MOH           1688 ****               0 ****  **** 
    232  MOH           1694 ****               0 ****  **** 
    233  MOH           1700 ****               0 ****  **** 
    234  MOH           1706 ****               0 ****  **** 
    235  MOH           1712 ****               0 ****  **** 
    236  MOH           1718 ****               0 ****  **** 
    237  MOH           1724 ****               0 ****  **** 
    238  MOH           1730 ****               0 ****  **** 
    239  MOH           1736 ****               0 ****  **** 
    240  MOH           1742 ****               0 ****  **** 
    241  MOH           1748 ****               0 ****  **** 
    242  MOH           1754 ****               0 ****  **** 
    243  MOH           1760 ****               0 ****  **** 
    244  MOH           1766 ****               0 ****  **** 
    245  MOH           1772 ****               0 ****  **** 
    246  MOH           1778 ****               0 ****  **** 
    247  MOH           1784 ****               0 ****  **** 
    248  MOH           1790 ****               0 ****  **** 
    249  MOH           1796 ****               0 ****  **** 
    250  MOH           1802 ****               0 ****  **** 
    251  MOH           1808 ****               0 ****  **** 
    252  MOH           1814 ****               0 ****  **** 
    253  MOH           1820 ****               0 ****  **** 
    254  MOH           1826 ****               0 ****  **** 
    255  MOH           1832 ****               0 ****  **** 
    256  MOH           1838 ****               0 ****  **** 
    257  MOH           1844 ****               0 ****  **** 
    258  MOH           1850 ****               0 ****  **** 
    259  MOH           1856 ****               0 ****  **** 
    260  MOH           1862 ****               0 ****  **** 
    261  MOH           1868 ****               0 ****  **** 
    262  MOH           1874 ****               0 ****  **** 
    263  MOH           1880 ****               0 ****  **** 
    264  MOH           1886 ****               0 ****  **** 
    265  MOH           1892 ****               0 ****  **** 
    266  MOH           1898 ****               0 ****  **** 
    267  MOH           1904 ****               0 ****  **** 
    268  MOH           1910 ****               0 ****  **** 
    269  MOH           1916 ****               0 ****  **** 
    270  MOH           1922 ****               0 ****  **** 
    271  MOH           1928 ****               0 ****  **** 
    272  MOH           1934 ****               0 ****  **** 
    273  MOH           1940 ****               0 ****  **** 
    274  MOH           1946 ****               0 ****  **** 
    275  MOH           1952 ****               0 ****  **** 
    276  MOH           1958 ****               0 ****  **** 
    277  MOH           1964 ****               0 ****  **** 
    278  MOH           1970 ****               0 ****  **** 
    279  MOH           1976 ****               0 ****  **** 
    280  MOH           1982 ****               0 ****  **** 
    281  MOH           1988 ****               0 ****  **** 
    282  MOH           1994 ****               0 ****  **** 
    283  MOH           2000 ****               0 ****  **** 
    284  MOH           2006 ****               0 ****  **** 
    285  MOH           2012 ****               0 ****  **** 
    286  MOH           2018 ****               0 ****  **** 
    287  MOH           2024 ****               0 ****  **** 
    288  MOH           2030 ****               0 ****  **** 
    289  MOH           2036 ****               0 ****  **** 
    290  MOH           2042 ****               0 ****  **** 
    291  MOH           2048 ****               0 ****  **** 
    292  MOH           2054 ****               0 ****  **** 
    293  MOH           2060 ****               0 ****  **** 
    294  MOH           2066 ****               0 ****  **** 
    295  MOH           2072 ****               0 ****  **** 
    296  MOH           2078 ****               0 ****  **** 
    297  MOH           2084 ****               0 ****  **** 
    298  MOH           2090 ****               0 ****  **** 
    299  MOH           2096 ****               0 ****  **** 
    300  MOH           2102 ****               0 ****  **** 
    301  MOH           2108 ****               0 ****  **** 
    302  MOH           2114 ****               0 ****  **** 
    303  MOH           2120 ****               0 ****  **** 
    304  MOH           2126 ****               0 ****  **** 
    305  MOH           2132 ****               0 ****  **** 
    306  MOH           2138 ****               0 ****  **** 
    307  MOH           2144 ****               0 ****  **** 
    308  MOH           2150 ****               0 ****  **** 
    309  MOH           2156 ****               0 ****  **** 
    310  MOH           2162 ****               0 ****  **** 
    311  MOH           2168 ****               0 ****  **** 
    312  MOH           2174 ****               0 ****  **** 
    313  MOH           2180 ****               0 ****  **** 
    314  MOH           2186 ****               0 ****  **** 
    315  MOH           2192 ****               0 ****  **** 
    316  MOH           2198 ****               0 ****  **** 
    317  MOH           2204 ****               0 ****  **** 
    318  MOH           2210 ****               0 ****  **** 
    319  MOH           2216 ****               0 ****  **** 
    320  MOH           2222 ****               0 ****  **** 
    321  MOH           2228 ****               0 ****  **** 
    322  MOH           2234 ****               0 ****  **** 
    323  MOH           2240 ****               0 ****  **** 
    324  MOH           2246 ****               0 ****  **** 
    325  MOH           2252 ****               0 ****  **** 
    326  MOH           2258 ****               0 ****  **** 
    327  MOH           2264 ****               0 ****  **** 
    328  MOH           2270 ****               0 ****  **** 
    329  MOH           2276 ****               0 ****  **** 
    330  MOH           2282 ****               0 ****  **** 
    331  MOH           2288 ****               0 ****  **** 
    332  MOH           2294 ****               0 ****  **** 
    333  MOH           2300 ****               0 ****  **** 
    334  MOH           2306 ****               0 ****  **** 
    335  MOH           2312 ****               0 ****  **** 
    336  MOH           2318 ****               0 ****  **** 
    337  MOH           2324 ****               0 ****  **** 
    338  MOH           2330 ****               0 ****  **** 
    339  MOH           2336 ****               0 ****  **** 
    340  MOH           2342 ****               0 ****  **** 
    341  MOH           2348 ****               0 ****  **** 
    342  MOH           2354 ****               0 ****  **** 
    343  MOH           2360 ****               0 ****  **** 
    344  MOH           2366 ****               0 ****  **** 
    345  MOH           2372 ****               0 ****  **** 
    346  MOH           2378 ****               0 ****  **** 
    347  MOH           2384 ****               0 ****  **** 
    348  MOH           2390 ****               0 ****  **** 
    349  MOH           2396 ****               0 ****  **** 
    350  MOH           2402 ****               0 ****  **** 
    351  MOH           2408 ****               0 ****  **** 
    352  MOH           2414 ****               0 ****  **** 
    353  MOH           2420 ****               0 ****  **** 
    354  MOH           2426 ****               0 ****  **** 
    355  MOH           2432 ****               0 ****  **** 
    356  MOH           2438 ****               0 ****  **** 
    357  MOH           2444 ****               0 ****  **** 
    358  MOH           2450 ****               0 ****  **** 
    359  MOH           2456 ****               0 ****  **** 
    360  MOH           2462 ****               0 ****  **** 
    361  MOH           2468 ****               0 ****  **** 
    362  MOH           2474 ****               0 ****  **** 
    363  MOH           2480 ****               0 ****  **** 
    364  MOH           2486 ****               0 ****  **** 
    365  MOH           2492 ****               0 ****  **** 
    366  MOH           2498 ****               0 ****  **** 
    367  MOH           2504 ****               0 ****  **** 
    368  MOH           2510 ****               0 ****  **** 
    369  MOH           2516 ****               0 ****  **** 
    370  MOH           2522 ****               0 ****  **** 
    371  MOH           2528 ****               0 ****  **** 
    372  MOH           2534 ****               0 ****  **** 
    373  MOH           2540 ****               0 ****  **** 
    374  MOH           2546 ****               0 ****  **** 
    375  MOH           2552 ****               0 ****  **** 
    376  MOH           2558 ****               0 ****  **** 
    377  MOH           2564 ****               0 ****  **** 
    378  MOH           2570 ****               0 ****  **** 
    379  MOH           2576 ****               0 ****  **** 
    380  MOH           2582 ****               0 ****  **** 
    381  MOH           2588 ****               0 ****  **** 
    382  MOH           2594 ****               0 ****  **** 
    383  MOH           2600 ****               0 ****  **** 
    384  MOH           2606 ****               0 ****  **** 
    385  MOH           2612 ****               0 ****  **** 
    386  MOH           2618 ****               0 ****  **** 
    387  MOH           2624 ****               0 ****  **** 
    388  MOH           2630 ****               0 ****  **** 
    389  MOH           2636 ****               0 ****  **** 
    390  MOH           2642 ****               0 ****  **** 
    391  MOH           2648 ****               0 ****  **** 
    392  MOH           2654 ****               0 ****  **** 
    393  MOH           2660 ****               0 ****  **** 
    394  MOH           2666 ****               0 ****  **** 
    395  MOH           2672 ****               0 ****  **** 
    396  MOH           2678 ****               0 ****  **** 
    397  MOH           2684 ****               0 ****  **** 
    398  MOH           2690 ****               0 ****  **** 
    399  MOH           2696 ****               0 ****  **** 
    400  MOH           2702 ****               0 ****  **** 
    401  MOH           2708 ****               0 ****  **** 
    402  MOH           2714 ****               0 ****  **** 
    403  MOH           2720 ****               0 ****  **** 
    404  MOH           2726 ****               0 ****  **** 
    405  MOH           2732 ****               0 ****  **** 
    406  MOH           2738 ****               0 ****  **** 
    407  MOH           2744 ****               0 ****  **** 
    408  MOH           2750 ****               0 ****  **** 
    409  MOH           2756 ****               0 ****  **** 
    410  MOH           2762 ****               0 ****  **** 
    411  MOH           2768 ****               0 ****  **** 
    412  MOH           2774 ****               0 ****  **** 
    413  MOH           2780 ****               0 ****  **** 
    414  MOH           2786 ****               0 ****  **** 
    415  MOH           2792 ****               0 ****  **** 
    416  MOH           2798 ****               0 ****  **** 
    417  MOH           2804 ****               0 ****  **** 
    418  MOH           2810 ****               0 ****  **** 
    419  MOH           2816 ****               0 ****  **** 
    420  MOH           2822 ****               0 ****  **** 
    421  MOH           2828 ****               0 ****  **** 
    422  MOH           2834 ****               0 ****  **** 
    423  MOH           2840 ****               0 ****  **** 
    424  MOH           2846 ****               0 ****  **** 
    425  MOH           2852 ****               0 ****  **** 
    426  MOH           2858 ****               0 ****  **** 
    427  MOH           2864 ****               0 ****  **** 
    428  MOH           2870 ****               0 ****  **** 
    429  MOH           2876 ****               0 ****  **** 
    430  MOH           2882 ****               0 ****  **** 
    431  MOH           2888 ****               0 ****  **** 
    432  MOH           2894 ****               0 ****  **** 
    433  MOH           2900 ****               0 ****  **** 
    434  MOH           2906 ****               0 ****  **** 
    435  MOH           2912 ****               0 ****  **** 
    436  MOH           2918 ****               0 ****  **** 
    437  MOH           2924 ****               0 ****  **** 
    438  MOH           2930 ****               0 ****  **** 
    439  MOH           2936 ****               0 ****  **** 
    440  MOH           2942 ****               0 ****  **** 
    441  MOH           2948 ****               0 ****  **** 
    442  MOH           2954 ****               0 ****  **** 
    443  MOH           2960 ****               0 ****  **** 
    444  MOH           2966 ****               0 ****  **** 
    445  MOH           2972 ****               0 ****  **** 
    446  MOH           2978 ****               0 ****  **** 
    447  MOH           2984 ****               0 ****  **** 
    448  MOH           2990 ****               0 ****  **** 
    449  MOH           2996 ****               0 ****  **** 
    450  MOH           3002 ****               0 ****  **** 
    451  MOH           3008 ****               0 ****  **** 
    452  MOH           3014 ****               0 ****  **** 
    453  MOH           3020 ****               0 ****  **** 
    454  MOH           3026 ****               0 ****  **** 
    455  MOH           3032 ****               0 ****  **** 
    456  MOH           3038 ****               0 ****  **** 
    457  MOH           3044 ****               0 ****  **** 
    458  MOH           3050 ****               0 ****  **** 
    459  MOH           3056 ****               0 ****  **** 
    460  MOH           3062 ****               0 ****  **** 
    461  MOH           3068 ****               0 ****  **** 
    462  MOH           3074 ****               0 ****  **** 
    463  MOH           3080 ****               0 ****  **** 
    464  MOH           3086 ****               0 ****  **** 
    465  MOH           3092 ****               0 ****  **** 
    466  MOH           3098 ****               0 ****  **** 
    467  MOH           3104 ****               0 ****  **** 
    468  MOH           3110 ****               0 ****  **** 
    469  MOH           3116 ****               0 ****  **** 
    470  MOH           3122 ****               0 ****  **** 
    471  MOH           3128 ****               0 ****  **** 
    472  MOH           3134 ****               0 ****  **** 
    473  MOH           3140 ****               0 ****  **** 
    474  MOH           3146 ****               0 ****  **** 
    475  MOH           3152 ****               0 ****  **** 
    476  MOH           3158 ****               0 ****  **** 
    477  MOH           3164 ****               0 ****  **** 
    478  MOH           3170 ****               0 ****  **** 
    479  MOH           3176 ****               0 ****  **** 
    480  MOH           3182 ****               0 ****  **** 
    481  MOH           3188 ****               0 ****  **** 
    482  MOH           3194 ****               0 ****  **** 
    483  MOH           3200 ****               0 ****  **** 
    484  MOH           3206 ****               0 ****  **** 
    485  MOH           3212 ****               0 ****  **** 
    486  MOH           3218 ****               0 ****  **** 
    487  MOH           3224 ****               0 ****  **** 
    488  MOH           3230 ****               0 ****  **** 
    489  MOH           3236 ****               0 ****  **** 
    490  MOH           3242 ****               0 ****  **** 
    491  MOH           3248 ****               0 ****  **** 
    492  MOH           3254 ****               0 ****  **** 
    493  MOH           3260 ****               0 ****  **** 
    494  MOH           3266 ****               0 ****  **** 
    495  MOH           3272 ****               0 ****  **** 
    496  MOH           3278 ****               0 ****  **** 
    497  MOH           3284 ****               0 ****  **** 
    498  MOH           3290 ****               0 ****  **** 
    499  MOH           3296 ****               0 ****  **** 
    500  MOH           3302 ****               0 ****  **** 
    501  MOH           3308 ****               0 ****  **** 
    502  MOH           3314 ****               0 ****  **** 
    503  MOH           3320 ****               0 ****  **** 
    504  MOH           3326 ****               0 ****  **** 
    505  MOH           3332 ****               0 ****  **** 
    506  MOH           3338 ****               0 ****  **** 
    507  MOH           3344 ****               0 ****  **** 
    508  MOH           3350 ****               0 ****  **** 
    509  MOH           3356 ****               0 ****  **** 
    510  MOH           3362 ****               0 ****  **** 
    511  MOH           3368 ****               0 ****  **** 
    512  MOH           3374 ****               0 ****  **** 
    513  MOH           3380 ****               0 ****  **** 
    514  MOH           3386 ****               0 ****  **** 
    515  MOH           3392 ****               0 ****  **** 
    516  MOH           3398 ****               0 ****  **** 
    517  MOH           3404 ****               0 ****  **** 
    518  MOH           3410 ****               0 ****  **** 
    519  MOH           3416 ****               0 ****  **** 
    520  MOH           3422 ****               0 ****  **** 
    521  MOH           3428 ****               0 ****  **** 
    522  MOH           3434 ****               0 ****  **** 
    523  MOH           3440 ****               0 ****  **** 
    524  MOH           3446 ****               0 ****  **** 
    525  MOH           3452 ****               0 ****  **** 
    526  MOH           3458 ****               0 ****  **** 
    527  MOH           3464 ****               0 ****  **** 
    528  MOH           3470 ****               0 ****  **** 
    529  MOH           3476 ****               0 ****  **** 
    530  MOH           3482 ****               0 ****  **** 
    531  MOH           3488 ****               0 ****  **** 
    532  MOH           3494 ****               0 ****  **** 
    533  MOH           3500 ****               0 ****  **** 
    534  MOH           3506 ****               0 ****  **** 
    535  MOH           3512 ****               0 ****  **** 
    536  MOH           3518 ****               0 ****  **** 
    537  MOH           3524 ****               0 ****  **** 
    538  MOH           3530 ****               0 ****  **** 
    539  MOH           3536 ****               0 ****  **** 
    540  MOH           3542 ****               0 ****  **** 
    541  MOH           3548 ****               0 ****  **** 
    542  MOH           3554 ****               0 ****  **** 
    543  MOH           3560 ****               0 ****  **** 
    544  MOH           3566 ****               0 ****  **** 
    545  MOH           3572 ****               0 ****  **** 
    546  MOH           3578 ****               0 ****  **** 
    547  MOH           3584 ****               0 ****  **** 
    548  MOH           3590 ****               0 ****  **** 
    549  MOH           3596 ****               0 ****  **** 
    550  MOH           3602 ****               0 ****  **** 
    551  MOH           3608 ****               0 ****  **** 
    552  MOH           3614 ****               0 ****  **** 
    553  MOH           3620 ****               0 ****  **** 
    554  MOH           3626 ****               0 ****  **** 
    555  MOH           3632 ****               0 ****  **** 
    556  MOH           3638 ****               0 ****  **** 
    557  MOH           3644 ****               0 ****  **** 
    558  MOH           3650 ****               0 ****  **** 
    559  MOH           3656 ****               0 ****  **** 
    560  MOH           3662 ****               0 ****  **** 
    561  MOH           3668 ****               0 ****  **** 
    562  MOH           3674 ****               0 ****  **** 
    563  MOH           3680 ****               0 ****  **** 
    564  MOH           3686 ****               0 ****  **** 
    565  MOH           3692 ****               0 ****  **** 
    566  MOH           3698 ****               0 ****  **** 
    567  MOH           3704 ****               0 ****  **** 
    568  MOH           3710 ****               0 ****  **** 
    569  MOH           3716 ****               0 ****  **** 
    570  MOH           3722 ****               0 ****  **** 
    571  MOH           3728 ****               0 ****  **** 
    572  MOH           3734 ****               0 ****  **** 
    573  MOH           3740 ****               0 ****  **** 
    574  MOH           3746 ****               0 ****  **** 
    575  MOH           3752 ****               0 ****  **** 
    576  MOH           3758 ****               0 ****  **** 
    577  MOH           3764 ****               0 ****  **** 
    578  MOH           3770 ****               0 ****  **** 
    579  MOH           3776 ****               0 ****  **** 
    580  MOH           3782 ****               0 ****  **** 
    581  MOH           3788 ****               0 ****  **** 
    582  MOH           3794 ****               0 ****  **** 
    583  MOH           3800 ****               0 ****  **** 
    584  MOH           3806 ****               0 ****  **** 
    585  MOH           3812 ****               0 ****  **** 
    586  MOH           3818 ****               0 ****  **** 
    587  MOH           3824 ****               0 ****  **** 
    588  MOH           3830 ****               0 ****  **** 
    589  MOH           3836 ****               0 ****  **** 
    590  MOH           3842 ****               0 ****  **** 
    591  MOH           3848 ****               0 ****  **** 
    592  MOH           3854 ****               0 ****  **** 
    593  MOH           3860 ****               0 ****  **** 
    594  MOH           3866 ****               0 ****  **** 
    595  MOH           3872 ****               0 ****  **** 
    596  MOH           3878 ****               0 ****  **** 
    597  MOH           3884 ****               0 ****  **** 
    598  MOH           3890 ****               0 ****  **** 
    599  MOH           3896 ****               0 ****  **** 
    600  MOH           3902 ****               0 ****  **** 
    601  MOH           3908 ****               0 ****  **** 
    602  MOH           3914 ****               0 ****  **** 
    603  MOH           3920 ****               0 ****  **** 
    604  MOH           3926 ****               0 ****  **** 
    605  MOH           3932 ****               0 ****  **** 
    606  MOH           3938 ****               0 ****  **** 
    607  MOH           3944 ****               0 ****  **** 
    608  MOH           3950 ****               0 ****  **** 
    609  MOH           3956 ****               0 ****  **** 
    610  MOH           3962 ****               0 ****  **** 
    611  MOH           3968 ****               0 ****  **** 
    612  MOH           3974 ****               0 ****  **** 
    613  MOH           3980 ****               0 ****  **** 
    614  MOH           3986 ****               0 ****  **** 
    615  MOH           3992 ****               0 ****  **** 
    616  MOH           3998 ****               0 ****  **** 
    617  MOH           4004 ****               0 ****  **** 
    618  MOH           4010 ****               0 ****  **** 
    619  MOH           4016 ****               0 ****  **** 
    620  MOH           4022 ****               0 ****  **** 
    621  MOH           4028 ****               0 ****  **** 
    622  MOH           4034 ****               0 ****  **** 
    623  MOH           4040 ****               0 ****  **** 
    624  MOH           4046 ****               0 ****  **** 
    625  MOH           4052 ****               0 ****  **** 
    626  MOH           4058 ****               0 ****  **** 
    627  MOH           4064 ****               0 ****  **** 
    628  MOH           4070 ****               0 ****  **** 
    629  MOH           4076 ****               0 ****  **** 
    630  MOH           4082 ****               0 ****  **** 
    631  MOH           4088 ****               0 ****  **** 
    632  MOH           4094 ****               0 ****  **** 
    633  MOH           4100 ****               0 ****  **** 
    634  MOH           4106 ****               0 ****  **** 
    635  MOH           4112 ****               0 ****  **** 
    636  MOH           4118 ****               0 ****  **** 
    637  MOH           4124 ****               0 ****  **** 
    638  MOH           4130 ****               0 ****  **** 
    639  MOH           4136 ****               0 ****  **** 
    640  MOH           4142 ****               0 ****  **** 
    641  MOH           4148 ****               0 ****  **** 
    642  MOH           4154 ****               0 ****  **** 
    643  MOH           4160 ****               0 ****  **** 
    644  MOH           4166 ****               0 ****  **** 
    645  MOH           4172 ****               0 ****  **** 
    646  MOH           4178 ****               0 ****  **** 
    647  MOH           4184 ****               0 ****  **** 
    648  MOH           4190 ****               0 ****  **** 
    649  MOH           4196 ****               0 ****  **** 
    650  MOH           4202 ****               0 ****  **** 
    651  MOH           4208 ****               0 ****  **** 
    652  MOH           4214 ****               0 ****  **** 
    653  MOH           4220 ****               0 ****  **** 
    654  MOH           4226 ****               0 ****  **** 
    655  MOH           4232 ****               0 ****  **** 
    656  MOH           4238 ****               0 ****  **** 
    657  MOH           4244 ****               0 ****  **** 
    658  MOH           4250 ****               0 ****  **** 
    659  MOH           4256 ****               0 ****  **** 
    660  MOH           4262 ****               0 ****  **** 
    661  MOH           4268 ****               0 ****  **** 
    662  MOH           4274 ****               0 ****  **** 
    663  MOH           4280 ****               0 ****  **** 
    664  MOH           4286 ****               0 ****  **** 
    665  MOH           4292 ****               0 ****  **** 
    666  MOH           4298 ****               0 ****  **** 
    667  MOH           4304 ****               0 ****  **** 
    668  MOH           4310 ****               0 ****  **** 
    669  MOH           4316 ****               0 ****  **** 
    670  MOH           4322 ****               0 ****  **** 
    671  MOH           4328 ****               0 ****  **** 
    672  MOH           4334 ****               0 ****  **** 
    673  MOH           4340 ****               0 ****  **** 
    674  MOH           4346 ****               0 ****  **** 
    675  MOH           4352 ****               0 ****  **** 
    676  MOH           4358 ****               0 ****  **** 
    677  MOH           4364 ****               0 ****  **** 
    678  MOH           4370 ****               0 ****  **** 
    679  MOH           4376 ****               0 ****  **** 
    680  MOH           4382 ****               0 ****  **** 
    681  MOH           4388 ****               0 ****  **** 
    682  MOH           4394 ****               0 ****  **** 
    683  MOH           4400 ****               0 ****  **** 
    684  MOH           4406 ****               0 ****  **** 
    685  MOH           4412 ****               0 ****  **** 
    686  MOH           4418 ****               0 ****  **** 
    687  MOH           4424 ****               0 ****  **** 
    688  MOH           4430 ****               0 ****  **** 
    689  MOH           4436 ****               0 ****  **** 
    690  MOH           4442 ****               0 ****  **** 
    691  MOH           4448 ****               0 ****  **** 
    692  MOH           4454 ****               0 ****  **** 
    693  MOH           4460 ****               0 ****  **** 
    694  MOH           4466 ****               0 ****  **** 
    695  MOH           4472 ****               0 ****  **** 
    696  MOH           4478 ****               0 ****  **** 
    697  MOH           4484 ****               0 ****  **** 
    698  MOH           4490 ****               0 ****  **** 
    699  MOH           4496 ****               0 ****  **** 
    700  MOH           4502 ****               0 ****  **** 
    701  MOH           4508 ****               0 ****  **** 
    702  MOH           4514 ****               0 ****  **** 
    703  MOH           4520 ****               0 ****  **** 
    704  MOH           4526 ****               0 ****  **** 
    705  MOH           4532 ****               0 ****  **** 
    706  MOH           4538 ****               0 ****  **** 
    707  MOH           4544 ****               0 ****  **** 
    708  MOH           4550 ****               0 ****  **** 
    709  MOH           4556 ****               0 ****  **** 
    710  MOH           4562 ****               0 ****  **** 
    711  MOH           4568 ****               0 ****  **** 
    712  MOH           4574 ****               0 ****  **** 
    713  MOH           4580 ****               0 ****  **** 
    714  MOH           4586 ****               0 ****  **** 
    715  MOH           4592 ****               0 ****  **** 
    716  MOH           4598 ****               0 ****  **** 
    717  MOH           4604 ****               0 ****  **** 
    718  MOH           4610 ****               0 ****  **** 
    719  MOH           4616 ****               0 ****  **** 
    720  MOH           4622 ****               0 ****  **** 
    721  MOH           4628 ****               0 ****  **** 
    722  MOH           4634 ****               0 ****  **** 
    723  MOH           4640 ****               0 ****  **** 
    724  MOH           4646 ****               0 ****  **** 
    725  MOH           4652 ****               0 ****  **** 
    726  MOH           4658 ****               0 ****  **** 
    727  MOH           4664 ****               0 ****  **** 
    728  MOH           4670 ****               0 ****  **** 
    729  MOH           4676 ****               0 ****  **** 
    730  MOH           4682 ****               0 ****  **** 
    731  MOH           4688 ****               0 ****  **** 
    732  MOH           4694 ****               0 ****  **** 
    733  MOH           4700 ****               0 ****  **** 
    734  MOH           4706 ****               0 ****  **** 
    735  MOH           4712 ****               0 ****  **** 
    736  MOH           4718 ****               0 ****  **** 
    737  MOH           4724 ****               0 ****  **** 
    738  MOH           4730 ****               0 ****  **** 
    739  MOH           4736 ****               0 ****  **** 
    740  MOH           4742 ****               0 ****  **** 
    741  MOH           4748 ****               0 ****  **** 
    742  MOH           4754 ****               0 ****  **** 
    743  MOH           4760 ****               0 ****  **** 
    744  MOH           4766 ****               0 ****  **** 
    745  MOH           4772 ****               0 ****  **** 
    746  MOH           4778 ****               0 ****  **** 
    747  MOH           4784 ****               0 ****  **** 
    748  MOH           4790 ****               0 ****  **** 
    749  MOH           4796 ****               0 ****  **** 
    750  MOH           4802 ****               0 ****  **** 
    751  MOH           4808 ****               0 ****  **** 
    752  MOH           4814 ****               0 ****  **** 
    753  MOH           4820 ****               0 ****  **** 
    754  MOH           4826 ****               0 ****  **** 
    755  MOH           4832 ****               0 ****  **** 
    756  MOH           4838 ****               0 ****  **** 
    757  MOH           4844 ****               0 ****  **** 
    758  MOH           4850 ****               0 ****  **** 
    759  MOH           4856 ****               0 ****  **** 
    760  MOH           4862 ****               0 ****  **** 
    761  MOH           4868 ****               0 ****  **** 
    762  MOH           4874 ****               0 ****  **** 
    763  MOH           4880 ****               0 ****  **** 
    764  MOH           4886 ****               0 ****  **** 
    765  MOH           4892 ****               0 ****  **** 
    766  MOH           4898 ****               0 ****  **** 
    767  MOH           4904 ****               0 ****  **** 
    768  MOH           4910 ****               0 ****  **** 
    769  MOH           4916 ****               0 ****  **** 
    770  MOH           4922 ****               0 ****  **** 
    771  MOH           4928 ****               0 ****  **** 
    772  MOH           4934 ****               0 ****  **** 
    773  MOH           4940 ****               0 ****  **** 
    774  MOH           4946 ****               0 ****  **** 
    775  MOH           4952 ****               0 ****  **** 
    776  MOH           4958 ****               0 ****  **** 
    777  MOH           4964 ****               0 ****  **** 
    778  MOH           4970 ****               0 ****  **** 
    779  MOH           4976 ****               0 ****  **** 
    780  MOH           4982 ****               0 ****  **** 
    781  MOH           4988 ****               0 ****  **** 
    782  MOH           4994 ****               0 ****  **** 
    783  MOH           5000 ****               0 ****  **** 
    784  MOH           5006 ****               0 ****  **** 
    785  MOH           5012 ****               0 ****  **** 
    786  MOH           5018 ****               0 ****  **** 
    787  MOH           5024 ****               0 ****  **** 
    788  MOH           5030 ****               0 ****  **** 
    789  MOH           5036 ****               0 ****  **** 
    790  MOH           5042 ****               0 ****  **** 
    791  MOH           5048 ****               0 ****  **** 
    792  MOH           5054 ****               0 ****  **** 
    793  MOH           5060 ****               0 ****  **** 
    794  MOH           5066 ****               0 ****  **** 
    795  MOH           5072 ****               0 ****  **** 
    796  MOH           5078 ****               0 ****  **** 
    797  MOH           5084 ****               0 ****  **** 
    798  MOH           5090 ****               0 ****  **** 
    799  MOH           5096 ****               0 ****  **** 
    800  MOH           5102 ****               0 ****  **** 
    801  MOH           5108 ****               0 ****  **** 
    802  MOH           5114 ****               0 ****  **** 
    803  MOH           5120 ****               0 ****  **** 
    804  MOH           5126 ****               0 ****  **** 
    805  MOH           5132 ****               0 ****  **** 
    806  MOH           5138 ****               0 ****  **** 
    807  MOH           5144 ****               0 ****  **** 
    808  MOH           5150 ****               0 ****  **** 
    809  MOH           5156 ****               0 ****  **** 
    810  MOH           5162 ****               0 ****  **** 
    811  MOH           5168 ****               0 ****  **** 
    812  MOH           5174 ****               0 ****  **** 
    813  MOH           5180 ****               0 ****  **** 
    814  MOH           5186 ****               0 ****  **** 
    815  MOH           5192 ****               0 ****  **** 
    816  MOH           5198 ****               0 ****  **** 
    817  MOH           5204 ****               0 ****  **** 
    818  MOH           5210 ****               0 ****  **** 
    819  MOH           5216 ****               0 ****  **** 
    820  MOH           5222 ****               0 ****  **** 
    821  MOH           5228 ****               0 ****  **** 
    822  MOH           5234 ****               0 ****  **** 
    823  MOH           5240 ****               0 ****  **** 
    824  MOH           5246 ****               0 ****  **** 
    825  MOH           5252 ****               0 ****  **** 
    826  MOH           5258 ****               0 ****  **** 
    827  MOH           5264 ****               0 ****  **** 
    828  MOH           5270 ****               0 ****  **** 
    829  MOH           5276 ****               0 ****  **** 
    830  MOH           5282 ****               0 ****  **** 
    831  MOH           5288 ****               0 ****  **** 
    832  MOH           5294 ****               0 ****  **** 
    833  MOH           5300 ****               0 ****  **** 
    834  MOH           5306 ****               0 ****  **** 
    835  MOH           5312 ****               0 ****  **** 
    836  MOH           5318 ****               0 ****  **** 
    837  MOH           5324 ****               0 ****  **** 
    838  MOH           5330 ****               0 ****  **** 
    839  MOH           5336 ****               0 ****  **** 
    840  MOH           5342 ****               0 ****  **** 
    841  MOH           5348 ****               0 ****  **** 
    842  MOH           5354 ****               0 ****  **** 
    843  MOH           5360 ****               0 ****  **** 
    844  MOH           5366 ****               0 ****  **** 
    845  MOH           5372 ****               0 ****  **** 
    846  MOH           5378 ****               0 ****  **** 
    847  MOH           5384 ****               0 ****  **** 
    848  MOH           5390 ****               0 ****  **** 
    849  MOH           5396 ****               0 ****  **** 
    850  MOH           5402 ****               0 ****  **** 
    851  MOH           5408 ****               0 ****  **** 
    852  MOH           5414 ****               0 ****  **** 
    853  MOH           5420 ****               0 ****  **** 
    854  MOH           5426 ****               0 ****  **** 
    855  MOH           5432 ****               0 ****  **** 
    856  MOH           5438 ****               0 ****  **** 
    857  MOH           5444 ****               0 ****  **** 
    858  MOH           5450 ****               0 ****  **** 
    859  MOH           5456 ****               0 ****  **** 
    860  MOH           5462 ****               0 ****  **** 
    861  MOH           5468 ****               0 ****  **** 
    862  MOH           5474 ****               0 ****  **** 
    863  MOH           5480 ****               0 ****  **** 
    864  MOH           5486 ****               0 ****  **** 
    865  MOH           5492 ****               0 ****  **** 
    866  MOH           5498 ****               0 ****  **** 
    867  MOH           5504 ****               0 ****  **** 
    868  MOH           5510 ****               0 ****  **** 
    869  MOH           5516 ****               0 ****  **** 
    870  MOH           5522 ****               0 ****  **** 
    871  MOH           5528 ****               0 ****  **** 
    872  MOH           5534 ****               0 ****  **** 
    873  MOH           5540 ****               0 ****  **** 
    874  MOH           5546 ****               0 ****  **** 
    875  MOH           5552 ****               0 ****  **** 
    876  MOH           5558 ****               0 ****  **** 
    877  MOH           5564 ****               0 ****  **** 
    878  MOH           5570 ****               0 ****  **** 
    879  MOH           5576 ****               0 ****  **** 
    880  MOH           5582 ****               0 ****  **** 
    881  MOH           5588 ****               0 ****  **** 
    882  MOH           5594 ****               0 ****  **** 
    883  MOH           5600 ****               0 ****  **** 
    884  MOH           5606 ****               0 ****  **** 
    885  MOH           5612 ****               0 ****  **** 
    886  MOH           5618 ****               0 ****  **** 
    887  MOH           5624 ****               0 ****  **** 
    888  MOH           5630 ****               0 ****  **** 
    889  MOH           5636 ****               0 ****  **** 
    890  MOH           5642 ****               0 ****  **** 
    891  MOH           5648 ****               0 ****  **** 
    892  MOH           5654 ****               0 ****  **** 
    893  MOH           5660 ****               0 ****  **** 
    894  MOH           5666 ****               0 ****  **** 
    895  MOH           5672 ****               0 ****  **** 
    896  MOH           5678 ****               0 ****  **** 
    897  MOH           5684 ****               0 ****  **** 
    898  MOH           5690 ****               0 ****  **** 
    899  MOH           5696 ****               0 ****  **** 
    900  MOH           5702 ****               0 ****  **** 
    901  MOH           5708 ****               0 ****  **** 
    902  MOH           5714 ****               0 ****  **** 
    903  MOH           5720 ****               0 ****  **** 
    904  MOH           5726 ****               0 ****  **** 
    905  MOH           5732 ****               0 ****  **** 
    906  MOH           5738 ****               0 ****  **** 
    907  MOH           5744 ****               0 ****  **** 
    908  MOH           5750 ****               0 ****  **** 
    909  MOH           5756 ****               0 ****  **** 
    910  MOH           5762 ****               0 ****  **** 
    911  MOH           5768 ****               0 ****  **** 
    912  MOH           5774 ****               0 ****  **** 
    913  MOH           5780 ****               0 ****  **** 
    914  MOH           5786 ****               0 ****  **** 
    915  MOH           5792 ****               0 ****  **** 
    916  MOH           5798 ****               0 ****  **** 
    917  MOH           5804 ****               0 ****  **** 
    918  MOH           5810 ****               0 ****  **** 
    919  MOH           5816 ****               0 ****  **** 
    920  MOH           5822 ****               0 ****  **** 
    921  MOH           5828 ****               0 ****  **** 
    922  MOH           5834 ****               0 ****  **** 
    923  MOH           5840 ****               0 ****  **** 
    924  MOH           5846 ****               0 ****  **** 
    925  MOH           5852 ****               0 ****  **** 
    926  MOH           5858 ****               0 ****  **** 
    927  MOH           5864 ****               0 ****  **** 
    928  MOH           5870 ****               0 ****  **** 
    929  MOH           5876 ****               0 ****  **** 
    930  MOH           5882 ****               0 ****  **** 
    931  MOH           5888 ****               0 ****  **** 
    932  MOH           5894 ****               0 ****  **** 
    933  MOH           5900 ****               0 ****  **** 
    934  MOH           5906 ****               0 ****  **** 
    935  MOH           5912 ****               0 ****  **** 
    936  MOH           5918 ****               0 ****  **** 
    937  MOH           5924 ****               0 ****  **** 
    938  MOH           5930 ****               0 ****  **** 
    939  MOH           5936 ****               0 ****  **** 
    940  MOH           5942 ****               0 ****  **** 
    941  MOH           5948 ****               0 ****  **** 
    942  MOH           5954 ****               0 ****  **** 
    943  MOH           5960 ****               0 ****  **** 
    944  MOH           5966 ****               0 ****  **** 
    945  MOH           5972 ****               0 ****  **** 
    946  MOH           5978 ****               0 ****  **** 
    947  MOH           5984 ****               0 ****  **** 
    948  MOH           5990 ****               0 ****  **** 
    949  MOH           5996 ****               0 ****  **** 
    950  MOH           6002 ****               0 ****  **** 
    951  MOH           6008 ****               0 ****  **** 
    952  MOH           6014 ****               0 ****  **** 
    953  MOH           6020 ****               0 ****  **** 
    954  MOH           6026 ****               0 ****  **** 
    955  MOH           6032 ****               0 ****  **** 
    956  MOH           6038 ****               0 ****  **** 
    957  MOH           6044 ****               0 ****  **** 
    958  MOH           6050 ****               0 ****  **** 
    959  MOH           6056 ****               0 ****  **** 
    960  MOH           6062 ****               0 ****  **** 
    961  MOH           6068 ****               0 ****  **** 
    962  MOH           6074 ****               0 ****  **** 
    963  MOH           6080 ****               0 ****  **** 
    964  MOH           6086 ****               0 ****  **** 
    965  MOH           6092 ****               0 ****  **** 
    966  MOH           6098 ****               0 ****  **** 
    967  MOH           6104 ****               0 ****  **** 
    968  MOH           6110 ****               0 ****  **** 
    969  MOH           6116 ****               0 ****  **** 
    970  MOH           6122 ****               0 ****  **** 
    971  MOH           6128 ****               0 ****  **** 
    972  MOH           6134 ****               0 ****  **** 
    973  MOH           6140 ****               0 ****  **** 
    974  MOH           6146 ****               0 ****  **** 
    975  MOH           6152 ****               0 ****  **** 
    976  MOH           6158 ****               0 ****  **** 
    977  MOH           6164 ****               0 ****  **** 
    978  MOH           6170 ****               0 ****  **** 
    979  MOH           6176 ****               0 ****  **** 
    980  MOH           6182 ****               0 ****  **** 
    981  MOH           6188 ****               0 ****  **** 
    982  MOH           6194 ****               0 ****  **** 
    983  MOH           6200 ****               0 ****  **** 
    984  MOH           6206 ****               0 ****  **** 
    985  MOH           6212 ****               0 ****  **** 
    986  MOH           6218 ****               0 ****  **** 
    987  MOH           6224 ****               0 ****  **** 
    988  MOH           6230 ****               0 ****  **** 
    989  MOH           6236 ****               0 ****  **** 
    990  MOH           6242 ****               0 ****  **** 
    991  MOH           6248 ****               0 ****  **** 
    992  MOH           6254 ****               0 ****  **** 
    993  MOH           6260 ****               0 ****  **** 
    994  MOH           6266 ****               0 ****  **** 
    995  MOH           6272 ****               0 ****  **** 
    996  MOH           6278 ****               0 ****  **** 
    997  MOH           6284 ****               0 ****  **** 
    998  MOH           6290 ****               0 ****  **** 
    999  MOH           6296 ****               0 ****  **** 
   1000  MOH           6302 ****               0 ****  **** 
   1001  MOH           6308 ****               0 ****  **** 
   1002  MOH           6314 ****               0 ****  **** 
   1003  MOH           6320 ****               0 ****  **** 
   1004  MOH           6326 ****               0 ****  **** 
   1005  MOH           6332 ****               0 ****  **** 
   1006  MOH           6338 ****               0 ****  **** 
   1007  MOH           6344 ****               0 ****  **** 
   1008  MOH           6350 ****               0 ****  **** 
   1009  MOH           6356 ****               0 ****  **** 
   1010  MOH           6362 ****               0 ****  **** 
   1011  MOH           6368 ****               0 ****  **** 
   1012  MOH           6374 ****               0 ****  **** 
   1013  MOH           6380 ****               0 ****  **** 
   1014  MOH           6386 ****               0 ****  **** 
   1015  MOH           6392 ****               0 ****  **** 
   1016  MOH           6398 ****               0 ****  **** 
   1017  MOH           6404 ****               0 ****  **** 
   1018  MOH           6410 ****               0 ****  **** 
   1019  MOH           6416 ****               0 ****  **** 
   1020  MOH           6422 ****               0 ****  **** 
   1021  MOH           6428 ****               0 ****  **** 
   1022  MOH           6434 ****               0 ****  **** 
   1023  MOH           6440 ****               0 ****  **** 
   1024  MOH           6446 ****               0 ****  **** 
   1025  MOH           6452 ****               0 ****  **** 
   1026  MOH           6458 ****               0 ****  **** 
   1027  MOH           6464 ****               0 ****  **** 
   1028  MOH           6470 ****               0 ****  **** 
   1029  MOH           6476 ****               0 ****  **** 
   1030  MOH           6482 ****               0 ****  **** 
   1031  MOH           6488 ****               0 ****  **** 
   1032  MOH           6494 ****               0 ****  **** 
   1033  MOH           6500 ****               0 ****  **** 
   1034  MOH           6506 ****               0 ****  **** 
   1035  MOH           6512 ****               0 ****  **** 
   1036  MOH           6518 ****               0 ****  **** 
   1037  MOH           6524 ****               0 ****  **** 
   1038  MOH           6530 ****               0 ****  **** 
   1039  MOH           6536 ****               0 ****  **** 
   1040  MOH           6542 ****               0 ****  **** 
   1041  MOH           6548 ****               0 ****  **** 
   1042  MOH           6554 ****               0 ****  **** 
   1043  MOH           6560 ****               0 ****  **** 
   1044  MOH           6566 ****               0 ****  **** 
   1045  MOH           6572 ****               0 ****  **** 
   1046  MOH           6578 ****               0 ****  **** 
   1047  MOH           6584 ****               0 ****  **** 
   1048  MOH           6590 ****               0 ****  **** 
   1049  MOH           6596 ****               0 ****  **** 
   1050  MOH           6602 ****               0 ****  **** 
   1051  MOH           6608 ****               0 ****  **** 
   1052  MOH           6614 ****               0 ****  **** 
   1053  MOH           6620 ****               0 ****  **** 
   1054  MOH           6626 ****               0 ****  **** 
   1055  MOH           6632 ****               0 ****  **** 
   1056  MOH           6638 ****               0 ****  **** 
   1057  MOH           6644 ****               0 ****  **** 
   1058  MOH           6650 ****               0 ****  **** 
   1059  MOH           6656 ****               0 ****  **** 
   1060  MOH           6662 ****               0 ****  **** 
   1061  MOH           6668 ****               0 ****  **** 
   1062  MOH           6674 ****               0 ****  **** 
   1063  MOH           6680 ****               0 ****  **** 
   1064  MOH           6686 ****               0 ****  **** 
   1065  MOH           6692 ****               0 ****  **** 
   1066  MOH           6698 ****               0 ****  **** 
   1067  MOH           6704 ****               0 ****  **** 
   1068  MOH           6710 ****               0 ****  **** 
   1069  MOH           6716 ****               0 ****  **** 
   1070  MOH           6722 ****               0 ****  **** 
   1071  MOH           6728 ****               0 ****  **** 
   1072  MOH           6734 ****               0 ****  **** 
   1073  MOH           6740 ****               0 ****  **** 
   1074  MOH           6746 ****               0 ****  **** 
   1075  MOH           6752 ****               0 ****  **** 
   1076  MOH           6758 ****               0 ****  **** 
   1077  MOH           6764 ****               0 ****  **** 
   1078  MOH           6770 ****               0 ****  **** 
   1079  MOH           6776 ****               0 ****  **** 
   1080  MOH           6782 ****               0 ****  **** 
   1081  MOH           6788 ****               0 ****  **** 
   1082  MOH           6794 ****               0 ****  **** 
   1083  MOH           6800 ****               0 ****  **** 
   1084  MOH           6806 ****               0 ****  **** 
   1085  MOH           6812 ****               0 ****  **** 
   1086  MOH           6818 ****               0 ****  **** 
   1087  MOH           6824 ****               0 ****  **** 
   1088  MOH           6830 ****               0 ****  **** 
   1089  MOH           6836 ****               0 ****  **** 
   1090  MOH           6842 ****               0 ****  **** 
   1091  MOH           6848 ****               0 ****  **** 
   1092  MOH           6854 ****               0 ****  **** 
   1093  MOH           6860 ****               0 ****  **** 
   1094  MOH           6866 ****               0 ****  **** 
   1095  MOH           6872 ****               0 ****  **** 
   1096  MOH           6878 ****               0 ****  **** 
   1097  MOH           6884 ****               0 ****  **** 
   1098  MOH           6890 ****               0 ****  **** 
   1099  MOH           6896 ****               0 ****  **** 
   1100  MOH           6902 ****               0 ****  **** 
   1101  MOH           6908 ****               0 ****  **** 
   1102  MOH           6914 ****               0 ****  **** 
   1103  MOH           6920 ****               0 ****  **** 
   1104  MOH           6926 ****               0 ****  **** 
   1105  MOH           6932 ****               0 ****  **** 
   1106  MOH           6938 ****               0 ****  **** 
   1107  MOH           6944 ****               0 ****  **** 
   1108  MOH           6950 ****               0 ****  **** 
   1109  MOH           6956 ****               0 ****  **** 
   1110  MOH           6962 ****               0 ****  **** 
   1111  MOH           6968 ****               0 ****  **** 
   1112  MOH           6974 ****               0 ****  **** 
   1113  MOH           6980 ****               0 ****  **** 
   1114  MOH           6986 ****               0 ****  **** 
   1115  MOH           6992 ****               0 ****  **** 
   1116  MOH           6998 ****               0 ****  **** 
   1117  MOH           7004 ****               0 ****  **** 
   1118  MOH           7010 ****               0 ****  **** 
   1119  MOH           7016 ****               0 ****  **** 
   1120  MOH           7022 ****               0 ****  **** 
   1121  MOH           7028 ****               0 ****  **** 
   1122  MOH           7034 ****               0 ****  **** 
   1123  MOH           7040 ****               0 ****  **** 
   1124  MOH           7046 ****               0 ****  **** 
   1125  MOH           7052 ****               0 ****  **** 
   1126  MOH           7058 ****               0 ****  **** 
   1127  MOH           7064 ****               0 ****  **** 
   1128  MOH           7070 ****               0 ****  **** 
   1129  MOH           7076 ****               0 ****  **** 
   1130  MOH           7082 ****               0 ****  **** 
   1131  MOH           7088 ****               0 ****  **** 
   1132  MOH           7094 ****               0 ****  **** 
   1133  MOH           7100 ****               0 ****  **** 
   1134  MOH           7106 ****               0 ****  **** 
   1135  MOH           7112 ****               0 ****  **** 
   1136  MOH           7118 ****               0 ****  **** 
   1137  MOH           7124 ****               0 ****  **** 
   1138  MOH           7130 ****               0 ****  **** 
   1139  MOH           7136 ****               0 ****  **** 
   1140  MOH           7142 ****               0 ****  **** 
   1141  MOH           7148 ****               0 ****  **** 
   1142  MOH           7154 ****               0 ****  **** 
   1143  MOH           7160 ****               0 ****  **** 
   1144  MOH           7166 ****               0 ****  **** 
   1145  MOH           7172 ****               0 ****  **** 
   1146  MOH           7178 ****               0 ****  **** 
   1147  MOH           7184 ****               0 ****  **** 
   1148  MOH           7190 ****               0 ****  **** 
   1149  MOH           7196 ****               0 ****  **** 
   1150  MOH           7202 ****               0 ****  **** 
   1151  MOH           7208 ****               0 ****  **** 
   1152  MOH           7214 ****               0 ****  **** 
   1153  MOH           7220 ****               0 ****  **** 
   1154  MOH           7226 ****               0 ****  **** 
   1155  MOH           7232 ****               0 ****  **** 
   1156  MOH           7238 ****               0 ****  **** 
   1157  MOH           7244 ****               0 ****  **** 
   1158  MOH           7250 ****               0 ****  **** 
   1159  MOH           7256 ****               0 ****  **** 
   1160  MOH           7262 ****               0 ****  **** 
   1161  MOH           7268 ****               0 ****  **** 
   1162  MOH           7274 ****               0 ****  **** 
   1163  MOH           7280 ****               0 ****  **** 
   1164  MOH           7286 ****               0 ****  **** 
   1165  MOH           7292 ****               0 ****  **** 
   1166  MOH           7298 ****               0 ****  **** 
   1167  MOH           7304 ****               0 ****  **** 
   1168  MOH           7310 ****               0 ****  **** 
   1169  MOH           7316 ****               0 ****  **** 
   1170  MOH           7322 ****               0 ****  **** 
   1171  MOH           7328 ****               0 ****  **** 
   1172  MOH           7334 ****               0 ****  **** 
   1173  MOH           7340 ****               0 ****  **** 
   1174  MOH           7346 ****               0 ****  **** 
   1175  MOH           7352 ****               0 ****  **** 
   1176  MOH           7358 ****               0 ****  **** 
   1177  MOH           7364 ****               0 ****  **** 
   1178  MOH           7370 ****               0 ****  **** 
   1179  MOH           7376 ****               0 ****  **** 
   1180  MOH           7382 ****               0 ****  **** 
   1181  MOH           7388 ****               0 ****  **** 
   1182  MOH           7394 ****               0 ****  **** 
   1183  MOH           7400 ****               0 ****  **** 
   1184  MOH           7406 ****               0 ****  **** 
   1185  MOH           7412 ****               0 ****  **** 
   1186  MOH           7418 ****               0 ****  **** 
   1187  MOH           7424 ****               0 ****  **** 
   1188  MOH           7430 ****               0 ****  **** 
   1189  MOH           7436 ****               0 ****  **** 
   1190  MOH           7442 ****               0 ****  **** 
   1191  MOH           7448 ****               0 ****  **** 
   1192  MOH           7454 ****               0 ****  **** 
   1193  MOH           7460 ****               0 ****  **** 
   1194  MOH           7466 ****               0 ****  **** 
   1195  MOH           7472 ****               0 ****  **** 
   1196  MOH           7478 ****               0 ****  **** 
   1197  MOH           7484 ****               0 ****  **** 
   1198  MOH           7490 ****               0 ****  **** 
   1199  MOH           7496 ****               0 ****  **** 
   1200  MOH           7502 ****               0 ****  **** 
   1201  MOH           7508 ****               0 ****  **** 
   1202  MOH           7514 ****               0 ****  **** 
   1203  MOH           7520 ****               0 ****  **** 
   1204  MOH           7526 ****               0 ****  **** 
   1205  MOH           7532 ****               0 ****  **** 
   1206  MOH           7538 ****               0 ****  **** 
   1207  MOH           7544 ****               0 ****  **** 
   1208  MOH           7550 ****               0 ****  **** 
   1209  MOH           7556 ****               0 ****  **** 
   1210  MOH           7562 ****               0 ****  **** 
   1211  MOH           7568 ****               0 ****  **** 
   1212  MOH           7574 ****               0 ****  **** 
   1213  MOH           7580 ****               0 ****  **** 
   1214  MOH           7586 ****               0 ****  **** 
   1215  MOH           7592 ****               0 ****  **** 
   1216  MOH           7598 ****               0 ****  **** 
   1217  MOH           7604 ****               0 ****  **** 
   1218  MOH           7610 ****               0 ****  **** 
   1219  MOH           7616 ****               0 ****  **** 
   1220  MOH           7622 ****               0 ****  **** 
   1221  MOH           7628 ****               0 ****  **** 
   1222  MOH           7634 ****               0 ****  **** 
   1223  MOH           7640 ****               0 ****  **** 
   1224  MOH           7646 ****               0 ****  **** 
   1225  MOH           7652 ****               0 ****  **** 
   1226  MOH           7658 ****               0 ****  **** 
   1227  MOH           7664 ****               0 ****  **** 
   1228  MOH           7670 ****               0 ****  **** 
   1229  MOH           7676 ****               0 ****  **** 
   1230  MOH           7682 ****               0 ****  **** 
   1231  MOH           7688 ****               0 ****  **** 
   1232  MOH           7694 ****               0 ****  **** 
   1233  MOH           7700 ****               0 ****  **** 
   1234  MOH           7706 ****               0 ****  **** 
   1235  MOH           7712 ****               0 ****  **** 
   1236  MOH           7718 ****               0 ****  **** 
   1237  MOH           7724 ****               0 ****  **** 
   1238  MOH           7730 ****               0 ****  **** 
   1239  MOH           7736 ****               0 ****  **** 
   1240  MOH           7742 ****               0 ****  **** 
   1241  MOH           7748 ****               0 ****  **** 
   1242  MOH           7754 ****               0 ****  **** 
   1243  MOH           7760 ****               0 ****  **** 
   1244  MOH           7766 ****               0 ****  **** 
   1245  MOH           7772 ****               0 ****  **** 
   1246  MOH           7778 ****               0 ****  **** 
   1247  MOH           7784 ****               0 ****  **** 
   1248  MOH           7790 ****               0 ****  **** 
   1249  MOH           7796 ****               0 ****  **** 
   1250  MOH           7802 ****               0 ****  **** 
   1251  MOH           7808 ****               0 ****  **** 
   1252  MOH           7814 ****               0 ****  **** 
   1253  MOH           7820 ****               0 ****  **** 
   1254  MOH           7826 ****               0 ****  **** 
   1255  MOH           7832 ****               0 ****  **** 
   1256  MOH           7838 ****               0 ****  **** 
   1257  MOH           7844 ****               0 ****  **** 
   1258  MOH           7850 ****               0 ****  **** 
   1259  MOH           7856 ****               0 ****  **** 
   1260  MOH           7862 ****               0 ****  **** 
   1261  MOH           7868 ****               0 ****  **** 
   1262  MOH           7874 ****               0 ****  **** 
   1263  MOH           7880 ****               0 ****  **** 
   1264  MOH           7886 ****               0 ****  **** 
   1265  MOH           7892 ****               0 ****  **** 
   1266  MOH           7898 ****               0 ****  **** 
   1267  MOH           7904 ****               0 ****  **** 
   1268  MOH           7910 ****               0 ****  **** 
   1269  MOH           7916 ****               0 ****  **** 
   1270  MOH           7922 ****               0 ****  **** 
   1271  MOH           7928 ****               0 ****  **** 
   1272  MOH           7934 ****               0 ****  **** 
   1273  MOH           7940 ****               0 ****  **** 
   1274  MOH           7946 ****               0 ****  **** 
   1275  MOH           7952 ****               0 ****  **** 
   1276  MOH           7958 ****               0 ****  **** 
   1277  MOH           7964 ****               0 ****  **** 
   1278  MOH           7970 ****               0 ****  **** 
   1279  MOH           7976 ****               0 ****  **** 
   1280  MOH           7982 ****               0 ****  **** 
   1281  MOH           7988 ****               0 ****  **** 
   1282  MOH           7994 ****               0 ****  **** 
   1283  MOH           8000 ****               0 ****  **** 
   1284  MOH           8006 ****               0 ****  **** 
   1285  MOH           8012 ****               0 ****  **** 
   1286  MOH           8018 ****               0 ****  **** 
   1287  MOH           8024 ****               0 ****  **** 
   1288  MOH           8030 ****               0 ****  **** 
   1289  MOH           8036 ****               0 ****  **** 
   1290  MOH           8042 ****               0 ****  **** 
   1291  MOH           8048 ****               0 ****  **** 
   1292  MOH           8054 ****               0 ****  **** 
   1293  MOH           8060 ****               0 ****  **** 
   1294  MOH           8066 ****               0 ****  **** 
   1295  MOH           8072 ****               0 ****  **** 
   1296  MOH           8078 ****               0 ****  **** 
   1297  MOH           8084 ****               0 ****  **** 
   1298  MOH           8090 ****               0 ****  **** 
   1299  MOH           8096 ****               0 ****  **** 
   1300  MOH           8102 ****               0 ****  **** 
   1301  MOH           8108 ****               0 ****  **** 
   1302  MOH           8114 ****               0 ****  **** 
   1303  MOH           8120 ****               0 ****  **** 
   1304  MOH           8126 ****               0 ****  **** 
   1305  MOH           8132 ****               0 ****  **** 
   1306  MOH           8138 ****               0 ****  **** 
   1307  MOH           8144 ****               0 ****  **** 
   1308  MOH           8150 ****               0 ****  **** 
   1309  MOH           8156 ****               0 ****  **** 
   1310  MOH           8162 ****               0 ****  **** 
   1311  MOH           8168 ****               0 ****  **** 
   1312  MOH           8174 ****               0 ****  **** 
   1313  MOH           8180 ****               0 ****  **** 
   1314  MOH           8186 ****               0 ****  **** 
   1315  MOH           8192 ****               0 ****  **** 
   1316  MOH           8198 ****               0 ****  **** 
   1317  MOH           8204 ****               0 ****  **** 
   1318  MOH           8210 ****               0 ****  **** 
   1319  MOH           8216 ****               0 ****  **** 
   1320  MOH           8222 ****               0 ****  **** 
   1321  MOH           8228 ****               0 ****  **** 
   1322  MOH           8234 ****               0 ****  **** 
   1323  MOH           8240 ****               0 ****  **** 
   1324  MOH           8246 ****               0 ****  **** 
   1325  MOH           8252 ****               0 ****  **** 
   1326  MOH           8258 ****               0 ****  **** 
   1327  MOH           8264 ****               0 ****  **** 
   1328  MOH           8270 ****               0 ****  **** 
   1329  MOH           8276 ****               0 ****  **** 
   1330  MOH           8282 ****               0 ****  **** 
   1331  MOH           8288 ****               0 ****  **** 
   1332  MOH           8294 ****               0 ****  **** 
   1333  MOH           8300 ****               0 ****  **** 
   1334  MOH           8306 ****               0 ****  **** 
   1335  MOH           8312 ****               0 ****  **** 
   1336  MOH           8318 ****               0 ****  **** 
   1337  MOH           8324 ****               0 ****  **** 
   1338  MOH           8330 ****               0 ****  **** 
   1339  MOH           8336 ****               0 ****  **** 
   1340  MOH           8342 ****               0 ****  **** 
   1341  MOH           8348 ****               0 ****  **** 
   1342  MOH           8354 ****               0 ****  **** 
   1343  MOH           8360 ****               0 ****  **** 
   1344  MOH           8366 ****               0 ****  **** 
   1345  MOH           8372 ****               0 ****  **** 
   1346  MOH           8378 ****               0 ****  **** 
   1347  MOH           8384 ****               0 ****  **** 
   1348  MOH           8390 ****               0 ****  **** 
   1349  MOH           8396 ****               0 ****  **** 
   1350  MOH           8402 ****               0 ****  **** 
   1351  MOH           8408 ****               0 ****  **** 
   1352  MOH           8414 ****               0 ****  **** 
   1353  MOH           8420 ****               0 ****  **** 
   1354  MOH           8426 ****               0 ****  **** 
   1355  MOH           8432 ****               0 ****  **** 
   1356  MOH           8438 ****               0 ****  **** 
   1357  MOH           8444 ****               0 ****  **** 
   1358  MOH           8450 ****               0 ****  **** 
   1359  MOH           8456 ****               0 ****  **** 
   1360  MOH           8462 ****               0 ****  **** 
   1361  MOH           8468 ****               0 ****  **** 
   1362  MOH           8474 ****               0 ****  **** 
   1363  MOH           8480 ****               0 ****  **** 
   1364  MOH           8486 ****               0 ****  **** 
   1365  MOH           8492 ****               0 ****  **** 
   1366  MOH           8498 ****               0 ****  **** 
   1367  MOH           8504 ****               0 ****  **** 
   1368  MOH           8510 ****               0 ****  **** 
   1369  MOH           8516 ****               0 ****  **** 
   1370  MOH           8522 ****               0 ****  **** 
   1371  MOH           8528 ****               0 ****  **** 
   1372  MOH           8534 ****               0 ****  **** 
   1373  MOH           8540 ****               0 ****  **** 
   1374  MOH           8546 ****               0 ****  **** 
   1375  MOH           8552 ****               0 ****  **** 
   1376  MOH           8558 ****               0 ****  **** 
   1377  MOH           8564 ****               0 ****  **** 
   1378  MOH           8570 ****               0 ****  **** 
   1379  MOH           8576 ****               0 ****  **** 
   1380  MOH           8582 ****               0 ****  **** 
   1381  MOH           8588 ****               0 ****  **** 
   1382  MOH           8594 ****               0 ****  **** 
   1383  MOH           8600 ****               0 ****  **** 
   1384  MOH           8606 ****               0 ****  **** 
   1385  MOH           8612 ****               0 ****  **** 
   1386  MOH           8618 ****               0 ****  **** 
   1387  MOH           8624 ****               0 ****  **** 
   1388  MOH           8630 ****               0 ****  **** 
   1389  MOH           8636 ****               0 ****  **** 
   1390  MOH           8642 ****               0 ****  **** 
   1391  MOH           8648 ****               0 ****  **** 
   1392  MOH           8654 ****               0 ****  **** 
   1393  MOH           8660 ****               0 ****  **** 
   1394  MOH           8666 ****               0 ****  **** 
   1395  MOH           8672 ****               0 ****  **** 
   1396  MOH           8678 ****               0 ****  **** 
   1397  MOH           8684 ****               0 ****  **** 
   1398  MOH           8690 ****               0 ****  **** 
   1399  MOH           8696 ****               0 ****  **** 
   1400  MOH           8702 ****               0 ****  **** 
   1401  MOH           8708 ****               0 ****  **** 
   1402  MOH           8714 ****               0 ****  **** 
   1403  MOH           8720 ****               0 ****  **** 
   1404  MOH           8726 ****               0 ****  **** 
   1405  MOH           8732 ****               0 ****  **** 
   1406  MOH           8738 ****               0 ****  **** 
   1407  MOH           8744 ****               0 ****  **** 
   1408  MOH           8750 ****               0 ****  **** 
   1409  MOH           8756 ****               0 ****  **** 
   1410  MOH           8762 ****               0 ****  **** 
   1411  MOH           8768 ****               0 ****  **** 
   1412  MOH           8774 ****               0 ****  **** 
   1413  MOH           8780 ****               0 ****  **** 
   1414  MOH           8786 ****               0 ****  **** 
   1415  MOH           8792 ****               0 ****  **** 
   1416  MOH           8798 ****               0 ****  **** 
   1417  MOH           8804 ****               0 ****  **** 
   1418  MOH           8810 ****               0 ****  **** 
   1419  MOH           8816 ****               0 ****  **** 
   1420  MOH           8822 ****               0 ****  **** 
   1421  MOH           8828 ****               0 ****  **** 
   1422  MOH           8834 ****               0 ****  **** 
   1423  MOH           8840 ****               0 ****  **** 
   1424  MOH           8846 ****               0 ****  **** 
   1425  MOH           8852 ****               0 ****  **** 
   1426  MOH           8858 ****               0 ****  **** 
   1427  MOH           8864 ****               0 ****  **** 
   1428  MOH           8870 ****               0 ****  **** 
   1429  MOH           8876 ****               0 ****  **** 
   1430  MOH           8882 ****               0 ****  **** 
   1431  MOH           8888 ****               0 ****  **** 
   1432  MOH           8894 ****               0 ****  **** 
   1433  MOH           8900 ****               0 ****  **** 
   1434  MOH           8906 ****               0 ****  **** 
   1435  MOH           8912 ****               0 ****  **** 
   1436  MOH           8918 ****               0 ****  **** 
   1437  MOH           8924 ****               0 ****  **** 
   1438  MOH           8930 ****               0 ****  **** 
   1439  MOH           8936 ****               0 ****  **** 
   1440  MOH           8942 ****               0 ****  **** 
   1441  MOH           8948 ****               0 ****  **** 
   1442  MOH           8954 ****               0 ****  **** 
   1443  MOH           8960 ****               0 ****  **** 
   1444  MOH           8966 ****               0 ****  **** 
   1445  MOH           8972 ****               0 ****  **** 
   1446  MOH           8978 ****               0 ****  **** 
   1447  MOH           8984 ****               0 ****  **** 
   1448  MOH           8990 ****               0 ****  **** 
   1449  MOH           8996 ****               0 ****  **** 
   1450  MOH           9002 ****               0 ****  **** 
   1451  MOH           9008 ****               0 ****  **** 
   1452  MOH           9014 ****               0 ****  **** 
   1453  MOH           9020 ****               0 ****  **** 
   1454  MOH           9026 ****               0 ****  **** 
   1455  MOH           9032 ****               0 ****  **** 
   1456  MOH           9038 ****               0 ****  **** 
   1457  MOH           9044 ****               0 ****  **** 
   1458  MOH           9050 ****               0 ****  **** 
   1459  MOH           9056 ****               0 ****  **** 
   1460  MOH           9062 ****               0 ****  **** 
   1461  MOH           9068 ****               0 ****  **** 
   1462  MOH           9074 ****               0 ****  **** 
   1463  MOH           9080 ****               0 ****  **** 
   1464  MOH           9086 ****               0 ****  **** 
   1465  MOH           9092 ****               0 ****  **** 
   1466  MOH           9098 ****               0 ****  **** 
   1467  MOH           9104 ****               0 ****  **** 
   1468  MOH           9110 ****               0 ****  **** 
   1469  MOH           9116 ****               0 ****  **** 
   1470  MOH           9122 ****               0 ****  **** 
   1471  MOH           9128 ****               0 ****  **** 
   1472  MOH           9134 ****               0 ****  **** 
   1473  MOH           9140 ****               0 ****  **** 
   1474  MOH           9146 ****               0 ****  **** 
   1475  MOH           9152 ****               0 ****  **** 
   1476  MOH           9158 ****               0 ****  **** 
   1477  MOH           9164 ****               0 ****  **** 
   1478  MOH           9170 ****               0 ****  **** 
   1479  MOH           9176 ****               0 ****  **** 
   1480  MOH           9182 ****               0 ****  **** 
   1481  MOH           9188 ****               0 ****  **** 
   1482  MOH           9194 ****               0 ****  **** 
   1483  MOH           9200 ****               0 ****  **** 
   1484  MOH           9206 ****               0 ****  **** 
   1485  MOH           9212 ****               0 ****  **** 
   1486  MOH           9218 ****               0 ****  **** 
   1487  MOH           9224 ****               0 ****  **** 
   1488  MOH           9230 ****               0 ****  **** 
   1489  MOH           9236 ****               0 ****  **** 
   1490  MOH           9242 ****               0 ****  **** 
   1491  MOH           9248 ****               0 ****  **** 
   1492  MOH           9254 ****               0 ****  **** 
   1493  MOH           9260 ****               0 ****  **** 
   1494  MOH           9266 ****               0 ****  **** 
   1495  MOH           9272 ****               0 ****  **** 
   1496  MOH           9278 ****               0 ****  **** 
   1497  MOH           9284 ****               0 ****  **** 
   1498  MOH           9290 ****               0 ****  **** 
   1499  MOH           9296 ****               0 ****  **** 
   1500  MOH           9302 ****               0 ****  **** 
   1501  MOH           9308 ****               0 ****  **** 
   1502  MOH           9314 ****               0 ****  **** 
   1503  MOH           9320 ****               0 ****  **** 
   1504  MOH           9326 ****               0 ****  **** 
   1505  MOH           9332 ****               0 ****  **** 
   1506  MOH           9338 ****               0 ****  **** 
   1507  MOH           9344 ****               0 ****  **** 
   1508  MOH           9350 ****               0 ****  **** 
   1509  MOH           9356 ****               0 ****  **** 
   1510  MOH           9362 ****               0 ****  **** 
   1511  MOH           9368 ****               0 ****  **** 
   1512  MOH           9374 ****               0 ****  **** 
   1513  MOH           9380 ****               0 ****  **** 
   1514  MOH           9386 ****               0 ****  **** 
   1515  MOH           9392 ****               0 ****  **** 
   1516  MOH           9398 ****               0 ****  **** 
   1517  MOH           9404 ****               0 ****  **** 
   1518  MOH           9410 ****               0 ****  **** 
   1519  MOH           9416 ****               0 ****  **** 
   1520  MOH           9422 ****               0 ****  **** 
   1521  MOH           9428 ****               0 ****  **** 
   1522  MOH           9434 ****               0 ****  **** 
   1523  MOH           9440 ****               0 ****  **** 
   1524  MOH           9446 ****               0 ****  **** 
   1525  MOH           9452 ****               0 ****  **** 
   1526  MOH           9458 ****               0 ****  **** 
   1527  MOH           9464 ****               0 ****  **** 
   1528  MOH           9470 ****               0 ****  **** 
   1529  MOH           9476 ****               0 ****  **** 
   1530  MOH           9482 ****               0 ****  **** 
   1531  MOH           9488 ****               0 ****  **** 
   1532  MOH           9494 ****               0 ****  **** 
   1533  MOH           9500 ****               0 ****  **** 
   1534  MOH           9506 ****               0 ****  **** 
   1535  MOH           9512 ****               0 ****  **** 
   1536  MOH           9518 ****               0 ****  **** 
   1537  MOH           9524 ****               0 ****  **** 
   1538  MOH           9530 ****               0 ****  **** 
   1539  MOH           9536 ****               0 ****  **** 
   1540  MOH           9542 ****               0 ****  **** 
   1541  MOH           9548 ****               0 ****  **** 
   1542  MOH           9554 ****               0 ****  **** 
   1543  MOH           9560 ****               0 ****  **** 
   1544  MOH           9566 ****               0 ****  **** 
   1545  MOH           9572 ****               0 ****  **** 
   1546  MOH           9578 ****               0 ****  **** 
   1547  MOH           9584 ****               0 ****  **** 
   1548  MOH           9590 ****               0 ****  **** 
   1549  MOH           9596 ****               0 ****  **** 
   1550  MOH           9602 ****               0 ****  **** 
   1551  MOH           9608 ****               0 ****  **** 
   1552  MOH           9614 ****               0 ****  **** 
   1553  MOH           9620 ****               0 ****  **** 
   1554  MOH           9626 ****               0 ****  **** 
   1555  MOH           9632 ****               0 ****  **** 
   1556  MOH           9638 ****               0 ****  **** 
   1557  MOH           9644 ****               0 ****  **** 
   1558  MOH           9650 ****               0 ****  **** 
   1559  MOH           9656 ****               0 ****  **** 
   1560  MOH           9662 ****               0 ****  **** 
   1561  MOH           9668 ****               0 ****  **** 
   1562  MOH           9674 ****               0 ****  **** 
   1563  MOH           9680 ****               0 ****  **** 
   1564  MOH           9686 ****               0 ****  **** 
   1565  MOH           9692 ****               0 ****  **** 
   1566  MOH           9698 ****               0 ****  **** 
   1567  MOH           9704 ****               0 ****  **** 
   1568  MOH           9710 ****               0 ****  **** 
   1569  MOH           9716 ****               0 ****  **** 
   1570  MOH           9722 ****               0 ****  **** 
   1571  MOH           9728 ****               0 ****  **** 
   1572  MOH           9734 ****               0 ****  **** 
   1573  MOH           9740 ****               0 ****  **** 
   1574  MOH           9746 ****               0 ****  **** 
   1575  MOH           9752 ****               0 ****  **** 
   1576  MOH           9758 ****               0 ****  **** 
   1577  MOH           9764 ****               0 ****  **** 
   1578  MOH           9770 ****               0 ****  **** 
   1579  MOH           9776 ****               0 ****  **** 
   1580  MOH           9782 ****               0 ****  **** 
   1581  MOH           9788 ****               0 ****  **** 
   1582  MOH           9794 ****               0 ****  **** 
   1583  MOH           9800 ****               0 ****  **** 
   1584  MOH           9806 ****               0 ****  **** 
   1585  MOH           9812 ****               0 ****  **** 
   1586  MOH           9818 ****               0 ****  **** 
   1587  MOH           9824 ****               0 ****  **** 
   1588  MOH           9830 ****               0 ****  **** 
   1589  MOH           9836 ****               0 ****  **** 
   1590  MOH           9842 ****               0 ****  **** 
   1591  MOH           9848 ****               0 ****  **** 
   1592  MOH           9854 ****               0 ****  **** 
   1593  MOH           9860 ****               0 ****  **** 
   1594  MOH           9866 ****               0 ****  **** 
   1595  MOH           9872 ****               0 ****  **** 
   1596  MOH           9878 ****               0 ****  **** 
   1597  MOH           9884 ****               0 ****  **** 
   1598  MOH           9890 ****               0 ****  **** 
   1599  MOH           9896 ****               0 ****  **** 
   1600  MOH           9902 ****               0 ****  **** 
   1601  MOH           9908 ****               0 ****  **** 
   1602  MOH           9914 ****               0 ****  **** 
   1603  MOH           9920 ****               0 ****  **** 
   1604  MOH           9926 ****               0 ****  **** 
   1605  MOH           9932 ****               0 ****  **** 
   1606  MOH           9938 ****               0 ****  **** 
   1607  MOH           9944 ****               0 ****  **** 
   1608  MOH           9950 ****               0 ****  **** 
   1609  MOH           9956 ****               0 ****  **** 
   1610  MOH           9962 ****               0 ****  **** 
   1611  MOH           9968 ****               0 ****  **** 
   1612  MOH           9974 ****               0 ****  **** 
   1613  MOH           9980 ****               0 ****  **** 
   1614  MOH           9986 ****               0 ****  **** 
   1615  MOH           9992 ****               0 ****  **** 
   1616  MOH           9998 ****               0 ****  **** 
   1617  MOH          10004 ****               0 ****  **** 
   1618  MOH          10010 ****               0 ****  **** 
   1619  MOH          10016 ****               0 ****  **** 
   1620  MOH          10022 ****               0 ****  **** 
   1621  MOH          10028 ****               0 ****  **** 
   1622  MOH          10034 ****               0 ****  **** 
   1623  MOH          10040 ****               0 ****  **** 
   1624  MOH          10046 ****               0 ****  **** 
   1625  MOH          10052 ****               0 ****  **** 
   1626  MOH          10058 ****               0 ****  **** 
   1627  MOH          10064 ****               0 ****  **** 
   1628  MOH          10070 ****               0 ****  **** 
   1629  MOH          10076 ****               0 ****  **** 
   1630  MOH          10082 ****               0 ****  **** 
   1631  MOH          10088 ****               0 ****  **** 
   1632  MOH          10094 ****               0 ****  **** 
   1633  MOH          10100 ****               0 ****  **** 
   1634  MOH          10106 ****               0 ****  **** 
   1635  MOH          10112 ****               0 ****  **** 
   1636  MOH          10118 ****               0 ****  **** 
   1637  MOH          10124 ****               0 ****  **** 
   1638  MOH          10130 ****               0 ****  **** 
   1639  MOH          10136 ****               0 ****  **** 
   1640  MOH          10142 ****               0 ****  **** 
   1641  MOH          10148 ****               0 ****  **** 
   1642  MOH          10154 ****               0 ****  **** 
   1643  MOH          10160 ****               0 ****  **** 
   1644  MOH          10166 ****               0 ****  **** 
   1645  MOH          10172 ****               0 ****  **** 
   1646  MOH          10178 ****               0 ****  **** 
   1647  MOH          10184 ****               0 ****  **** 
   1648  MOH          10190 ****               0 ****  **** 
   1649  MOH          10196 ****               0 ****  **** 
   1650  MOH          10202 ****               0 ****  **** 
   1651  MOH          10208 ****               0 ****  **** 
   1652  MOH          10214 ****               0 ****  **** 
   1653  MOH          10220 ****               0 ****  **** 
   1654  MOH          10226 ****               0 ****  **** 
   1655  MOH          10232 ****               0 ****  **** 
   1656  MOH          10238 ****               0 ****  **** 
   1657  MOH          10244 ****               0 ****  **** 
   1658  MOH          10250 ****               0 ****  **** 
   1659  MOH          10256 ****               0 ****  **** 
   1660  MOH          10262 ****               0 ****  **** 
   1661  MOH          10268 ****               0 ****  **** 
   1662  MOH          10274 ****               0 ****  **** 
   1663  MOH          10280 ****               0 ****  **** 
   1664  MOH          10286 ****               0 ****  **** 
   1665  MOH          10292 ****               0 ****  **** 
   1666  MOH          10298 ****               0 ****  **** 
   1667  MOH          10304 ****               0 ****  **** 
   1668  MOH          10310 ****               0 ****  **** 
   1669  MOH          10316 ****               0 ****  **** 
   1670  MOH          10322 ****               0 ****  **** 
   1671  MOH          10328 ****               0 ****  **** 
   1672  MOH          10334 ****               0 ****  **** 
   1673  MOH          10340 ****               0 ****  **** 
   1674  MOH          10346 ****               0 ****  **** 
   1675  MOH          10352 ****               0 ****  **** 
   1676  MOH          10358 ****               0 ****  **** 
   1677  MOH          10364 ****               0 ****  **** 
   1678  MOH          10370 ****               0 ****  **** 
   1679  MOH          10376 ****               0 ****  **** 
   1680  MOH          10382 ****               0 ****  **** 
   1681  MOH          10388 ****               0 ****  **** 
   1682  MOH          10394 ****               0 ****  **** 
   1683  MOH          10400 ****               0 ****  **** 
   1684  MOH          10406 ****               0 ****  **** 
   1685  MOH          10412 ****               0 ****  **** 
   1686  MOH          10418 ****               0 ****  **** 
   1687  MOH          10424 ****               0 ****  **** 
   1688  MOH          10430 ****               0 ****  **** 
   1689  MOH          10436 ****               0 ****  **** 
   1690  MOH          10442 ****               0 ****  **** 
   1691  MOH          10448 ****               0 ****  **** 
   1692  MOH          10454 ****               0 ****  **** 
   1693  MOH          10460 ****               0 ****  **** 
   1694  MOH          10466 ****               0 ****  **** 
   1695  MOH          10472 ****               0 ****  **** 
   1696  MOH          10478 ****               0 ****  **** 
   1697  MOH          10484 ****               0 ****  **** 
   1698  MOH          10490 ****               0 ****  **** 
   1699  MOH          10496 ****               0 ****  **** 
   1700  MOH          10502 ****               0 ****  **** 
   1701  MOH          10508 ****               0 ****  **** 
   1702  MOH          10514 ****               0 ****  **** 
   1703  MOH          10520 ****               0 ****  **** 
   1704  MOH          10526 ****               0 ****  **** 
   1705  MOH          10532 ****               0 ****  **** 
   1706  MOH          10538 ****               0 ****  **** 
   1707  MOH          10544 ****               0 ****  **** 
   1708  MOH          10550 ****               0 ****  **** 
   1709  MOH          10556 ****               0 ****  **** 
   1710  MOH          10562 ****               0 ****  **** 
   1711  MOH          10568 ****               0 ****  **** 
   1712  MOH          10574 ****               0 ****  **** 
   1713  MOH          10580 ****               0 ****  **** 
   1714  MOH          10586 ****               0 ****  **** 
   1715  MOH          10592 ****               0 ****  **** 
   1716  MOH          10598 ****               0 ****  **** 
   1717  MOH          10604 ****               0 ****  **** 
   1718  MOH          10610 ****               0 ****  **** 
   1719  MOH          10616 ****               0 ****  **** 
   1720  MOH          10622 ****               0 ****  **** 
   1721  MOH          10628 ****               0 ****  **** 
   1722  MOH          10634 ****               0 ****  **** 
   1723  MOH          10640 ****               0 ****  **** 
   1724  MOH          10646 ****               0 ****  **** 
   1725  MOH          10652 ****               0 ****  **** 
   1726  MOH          10658 ****               0 ****  **** 
   1727  MOH          10664 ****               0 ****  **** 
   1728  MOH          10670 ****               0 ****  **** 
   1729  MOH          10676 ****               0 ****  **** 
   1730  MOH          10682 ****               0 ****  **** 
   1731  MOH          10688 ****               0 ****  **** 
   1732  MOH          10694 ****               0 ****  **** 
   1733  MOH          10700 ****               0 ****  **** 
   1734  MOH          10706 ****               0 ****  **** 
   1735  MOH          10712 ****               0 ****  **** 
   1736  MOH          10718 ****               0 ****  **** 
   1737  MOH          10724 ****               0 ****  **** 
   1738  MOH          10730 ****               0 ****  **** 
   1739  MOH          10736 ****               0 ****  **** 
   1740  MOH          10742 ****               0 ****  **** 
   1741  MOH          10748 ****               0 ****  **** 
   1742  MOH          10754 ****               0 ****  **** 
   1743  MOH          10760 ****               0 ****  **** 
   1744  MOH          10766 ****               0 ****  **** 
   1745  MOH          10772 ****               0 ****  **** 
   1746  MOH          10778 ****               0 ****  **** 
   1747  MOH          10784 ****               0 ****  **** 
   1748  MOH          10790 ****               0 ****  **** 
   1749  MOH          10796 ****               0 ****  **** 
   1750  MOH          10802 ****               0 ****  **** 
   1751  MOH          10808 ****               0 ****  **** 
   1752  MOH          10814 ****               0 ****  **** 
   1753  MOH          10820 ****               0 ****  **** 
   1754  MOH          10826 ****               0 ****  **** 
   1755  MOH          10832 ****               0 ****  **** 
   1756  MOH          10838 ****               0 ****  **** 
   1757  MOH          10844 ****               0 ****  **** 
   1758  MOH          10850 ****               0 ****  **** 
   1759  MOH          10856 ****               0 ****  **** 
   1760  MOH          10862 ****               0 ****  **** 
   1761  MOH          10868 ****               0 ****  **** 
   1762  MOH          10874 ****               0 ****  **** 
   1763  MOH          10880 ****               0 ****  **** 
   1764  MOH          10886 ****               0 ****  **** 
   1765  MOH          10892 ****               0 ****  **** 
   1766  MOH          10898 ****               0 ****  **** 
   1767  MOH          10904 ****               0 ****  **** 
   1768  MOH          10910 ****               0 ****  **** 
   1769  MOH          10916 ****               0 ****  **** 
   1770  MOH          10922 ****               0 ****  **** 
   1771  MOH          10928 ****               0 ****  **** 
   1772  MOH          10934 ****               0 ****  **** 
   1773  MOH          10940 ****               0 ****  **** 
   1774  MOH          10946 ****               0 ****  **** 
   1775  MOH          10952 ****               0 ****  **** 
   1776  MOH          10958 ****               0 ****  **** 
   1777  MOH          10964 ****               0 ****  **** 
   1778  MOH          10970 ****               0 ****  **** 
   1779  MOH          10976 ****               0 ****  **** 
   1780  MOH          10982 ****               0 ****  **** 
   1781  MOH          10988 ****               0 ****  **** 
   1782  MOH          10994 ****               0 ****  **** 
   1783  MOH          11000 ****               0 ****  **** 
   1784  MOH          11006 ****               0 ****  **** 
   1785  MOH          11012 ****               0 ****  **** 
   1786  MOH          11018 ****               0 ****  **** 
   1787  MOH          11024 ****               0 ****  **** 
   1788  MOH          11030 ****               0 ****  **** 
   1789  MOH          11036 ****               0 ****  **** 
   1790  MOH          11042 ****               0 ****  **** 
   1791  MOH          11048 ****               0 ****  **** 
   1792  MOH          11054 ****               0 ****  **** 
   1793  MOH          11060 ****               0 ****  **** 
   1794  MOH          11066 ****               0 ****  **** 
   1795  MOH          11072 ****               0 ****  **** 
   1796  MOH          11078 ****               0 ****  **** 
   1797  MOH          11084 ****               0 ****  **** 
   1798  MOH          11090 ****               0 ****  **** 
   1799  MOH          11096 ****               0 ****  **** 
   1800  MOH          11102 ****               0 ****  **** 
   1801  MOH          11108 ****               0 ****  **** 
   1802  MOH          11114 ****               0 ****  **** 
   1803  MOH          11120 ****               0 ****  **** 
   1804  MOH          11126 ****               0 ****  **** 
   1805  MOH          11132 ****               0 ****  **** 
   1806  MOH          11138 ****               0 ****  **** 
   1807  MOH          11144 ****               0 ****  **** 
   1808  MOH          11150 ****               0 ****  **** 
   1809  MOH          11156 ****               0 ****  **** 
   1810  MOH          11162 ****               0 ****  **** 
   1811  MOH          11168 ****               0 ****  **** 
   1812  MOH          11174 ****               0 ****  **** 
   1813  MOH          11180 ****               0 ****  **** 
   1814  MOH          11186 ****               0 ****  **** 
   1815  MOH          11192 ****               0 ****  **** 
   1816  MOH          11198 ****               0 ****  **** 
   1817  MOH          11204 ****               0 ****  **** 
   1818  MOH          11210 ****               0 ****  **** 
   1819  MOH          11216 ****               0 ****  **** 
   1820  MOH          11222 ****               0 ****  **** 
   1821  MOH          11228 ****               0 ****  **** 
   1822  MOH          11234 ****               0 ****  **** 
   1823  MOH          11240 ****               0 ****  **** 
   1824  MOH          11246 ****               0 ****  **** 
   1825  MOH          11252 ****               0 ****  **** 
   1826  MOH          11258 ****               0 ****  **** 
   1827  MOH          11264 ****               0 ****  **** 
   1828  MOH          11270 ****               0 ****  **** 
   1829  MOH          11276 ****               0 ****  **** 
   1830  MOH          11282 ****               0 ****  **** 
   1831  MOH          11288 ****               0 ****  **** 
   1832  MOH          11294 ****               0 ****  **** 
   1833  MOH          11300 ****               0 ****  **** 
   1834  MOH          11306 ****               0 ****  **** 
   1835  MOH          11312 ****               0 ****  **** 
   1836  MOH          11318 ****               0 ****  **** 
   1837  MOH          11324 ****               0 ****  **** 
   1838  MOH          11330 ****               0 ****  **** 
   1839  MOH          11336 ****               0 ****  **** 
   1840  MOH          11342 ****               0 ****  **** 
   1841  MOH          11348 ****               0 ****  **** 
   1842  MOH          11354 ****               0 ****  **** 
   1843  MOH          11360 ****               0 ****  **** 
   1844  MOH          11366 ****               0 ****  **** 
   1845  MOH          11372 ****               0 ****  **** 
   1846  MOH          11378 ****               0 ****  **** 
   1847  MOH          11384 ****               0 ****  **** 
   1848  MOH          11390 ****               0 ****  **** 
   1849  MOH          11396 ****               0 ****  **** 
   1850  MOH          11402 ****               0 ****  **** 
   1851  MOH          11408 ****               0 ****  **** 
   1852  MOH          11414 ****               0 ****  **** 
   1853  MOH          11420 ****               0 ****  **** 
   1854  MOH          11426 ****               0 ****  **** 
   1855  MOH          11432 ****               0 ****  **** 
   1856  MOH          11438 ****               0 ****  **** 
   1857  MOH          11444 ****               0 ****  **** 
   1858  MOH          11450 ****               0 ****  **** 
   1859  MOH          11456 ****               0 ****  **** 
   1860  MOH          11462 ****               0 ****  **** 
   1861  MOH          11468 ****               0 ****  **** 
   1862  MOH          11474 ****               0 ****  **** 
   1863  MOH          11480 ****               0 ****  **** 
   1864  MOH          11486 ****               0 ****  **** 
   1865  MOH          11492 ****               0 ****  **** 
   1866  MOH          11498 ****               0 ****  **** 
   1867  MOH          11504 ****               0 ****  **** 
   1868  MOH          11510 ****               0 ****  **** 
   1869  MOH          11516 ****               0 ****  **** 
   1870  MOH          11522 ****               0 ****  **** 
   1871  MOH          11528 ****               0 ****  **** 
   1872  MOH          11534 ****               0 ****  **** 
   1873  MOH          11540 ****               0 ****  **** 
   1874  MOH          11546 ****               0 ****  **** 
   1875  MOH          11552 ****               0 ****  **** 
   1876  MOH          11558 ****               0 ****  **** 
   1877  MOH          11564 ****               0 ****  **** 
   1878  MOH          11570 ****               0 ****  **** 
   1879  MOH          11576 ****               0 ****  **** 
   1880  MOH          11582 ****               0 ****  **** 
   1881  MOH          11588 ****               0 ****  **** 
   1882  MOH          11594 ****               0 ****  **** 
   1883  MOH          11600 ****               0 ****  **** 
   1884  MOH          11606 ****               0 ****  **** 
   1885  MOH          11612 ****               0 ****  **** 
   1886  MOH          11618 ****               0 ****  **** 
   1887  MOH          11624 ****               0 ****  **** 
   1888  MOH          11630 ****               0 ****  **** 
   1889  MOH          11636 ****               0 ****  **** 
   1890  MOH          11642 ****               0 ****  **** 
   1891  MOH          11648 ****               0 ****  **** 
   1892  MOH          11654 ****               0 ****  **** 
   1893  MOH          11660 ****               0 ****  **** 
   1894  MOH          11666 ****               0 ****  **** 
   1895  MOH          11672 ****               0 ****  **** 
   1896  MOH          11678 ****               0 ****  **** 
   1897  MOH          11684 ****               0 ****  **** 
   1898  MOH          11690 ****               0 ****  **** 
   1899  MOH          11696 ****               0 ****  **** 
   1900  MOH          11702 ****               0 ****  **** 
   1901  MOH          11708 ****               0 ****  **** 
   1902  MOH          11714 ****               0 ****  **** 
   1903  MOH          11720 ****               0 ****  **** 
   1904  MOH          11726 ****               0 ****  **** 
   1905  MOH          11732 ****               0 ****  **** 
   1906  MOH          11738 ****               0 ****  **** 
   1907  MOH          11744 ****               0 ****  **** 
   1908  MOH          11750 ****               0 ****  **** 
   1909  MOH          11756 ****               0 ****  **** 
   1910  MOH          11762 ****               0 ****  **** 
   1911  MOH          11768 ****               0 ****  **** 
   1912  MOH          11774 ****               0 ****  **** 
   1913  MOH          11780 ****               0 ****  **** 
   1914  MOH          11786 ****               0 ****  **** 
   1915  MOH          11792 ****               0 ****  **** 
   1916  MOH          11798 ****               0 ****  **** 
   1917  MOH          11804 ****               0 ****  **** 
   1918  MOH          11810 ****               0 ****  **** 
   1919  MOH          11816 ****               0 ****  **** 
   1920  MOH          11822 ****               0 ****  **** 
   1921  MOH          11828 ****               0 ****  **** 
   1922  MOH          11834 ****               0 ****  **** 
   1923  MOH          11840 ****               0 ****  **** 
   1924  MOH          11846 ****               0 ****  **** 
   1925  MOH          11852 ****               0 ****  **** 
   1926  MOH          11858 ****               0 ****  **** 
   1927  MOH          11864 ****               0 ****  **** 
   1928  MOH          11870 ****               0 ****  **** 
   1929  MOH          11876 ****               0 ****  **** 
   1930  MOH          11882 ****               0 ****  **** 
   1931  MOH          11888 ****               0 ****  **** 
   1932  MOH          11894 ****               0 ****  **** 
   1933  MOH          11900 ****               0 ****  **** 
   1934  MOH          11906 ****               0 ****  **** 
   1935  MOH          11912 ****               0 ****  **** 
   1936  MOH          11918 ****               0 ****  **** 
   1937  MOH          11924 ****               0 ****  **** 
   1938  MOH          11930 ****               0 ****  **** 
   1939  MOH          11936 ****               0 ****  **** 
   1940  MOH          11942 ****               0 ****  **** 
   1941  MOH          11948 ****               0 ****  **** 
   1942  MOH          11954 ****               0 ****  **** 
   1943  MOH          11960 ****               0 ****  **** 
   1944  MOH          11966 ****               0 ****  **** 
   1945  MOH          11972 ****               0 ****  **** 
   1946  MOH          11978 ****               0 ****  **** 
   1947  MOH          11984 ****               0 ****  **** 
   1948  MOH          11990 ****               0 ****  **** 
   1949  MOH          11996 ****               0 ****  **** 
   1950  MOH          12002 ****               0 ****  **** 
   1951  MOH          12008 ****               0 ****  **** 
   1952  MOH          12014 ****               0 ****  **** 
   1953  MOH          12020 ****               0 ****  **** 
   1954  MOH          12026 ****               0 ****  **** 
   1955  MOH          12032 ****               0 ****  **** 
   1956  MOH          12038 ****               0 ****  **** 
   1957  MOH          12044 ****               0 ****  **** 
   1958  MOH          12050 ****               0 ****  **** 
   1959  MOH          12056 ****               0 ****  **** 
   1960  MOH          12062 ****               0 ****  **** 
   1961  MOH          12068 ****               0 ****  **** 
   1962  MOH          12074 ****               0 ****  **** 
   1963  MOH          12080 ****               0 ****  **** 
   1964  MOH          12086 ****               0 ****  **** 
   1965  MOH          12092 ****               0 ****  **** 
   1966  MOH          12098 ****               0 ****  **** 
   1967  MOH          12104 ****               0 ****  **** 
   1968  MOH          12110 ****               0 ****  **** 
   1969  MOH          12116 ****               0 ****  **** 
   1970  MOH          12122 ****               0 ****  **** 
   1971  MOH          12128 ****               0 ****  **** 
   1972  MOH          12134 ****               0 ****  **** 
   1973  MOH          12140 ****               0 ****  **** 
   1974  MOH          12146 ****               0 ****  **** 
   1975  MOH          12152 ****               0 ****  **** 
   1976  MOH          12158 ****               0 ****  **** 
   1977  MOH          12164 ****               0 ****  **** 
   1978  MOH          12170 ****               0 ****  **** 
   1979  MOH          12176 ****               0 ****  **** 
   1980  MOH          12182 ****               0 ****  **** 
   1981  MOH          12188 ****               0 ****  **** 
   1982  MOH          12194 ****               0 ****  **** 
   1983  MOH          12200 ****               0 ****  **** 
   1984  MOH          12206 ****               0 ****  **** 
   1985  MOH          12212 ****               0 ****  **** 
   1986  MOH          12218 ****               0 ****  **** 
   1987  MOH          12224 ****               0 ****  **** 
   1988  MOH          12230 ****               0 ****  **** 
   1989  MOH          12236 ****               0 ****  **** 
   1990  MOH          12242 ****               0 ****  **** 
   1991  MOH          12248 ****               0 ****  **** 
   1992  MOH          12254 ****               0 ****  **** 
   1993  MOH          12260 ****               0 ****  **** 
   1994  MOH          12266 ****               0 ****  **** 
   1995  MOH          12272 ****               0 ****  **** 
   1996  MOH          12278 ****               0 ****  **** 
   1997  MOH          12284 ****               0 ****  **** 
   1998  MOH          12290 ****               0 ****  **** 
   1999  MOH          12296 ****               0 ****  **** 
   2000  MOH          12302 ****               0 ****  **** 
   2001  MOH          12308 ****               0 ****  **** 
   2002  MOH          12314 ****               0 ****  **** 
   2003  MOH          12320 ****               0 ****  **** 
   2004  MOH          12326 ****               0 ****  **** 
   2005  MOH          12332 ****               0 ****  **** 
   2006  MOH          12338 ****               0 ****  **** 
   2007  MOH          12344 ****               0 ****  **** 
   2008  MOH          12350 ****               0 ****  **** 
   2009  MOH          12356 ****               0 ****  **** 
   2010  MOH          12362 ****               0 ****  **** 
   2011  MOH          12368 ****               0 ****  **** 
   2012  MOH          12374 ****               0 ****  **** 
   2013  MOH          12380 ****               0 ****  **** 
   2014  MOH          12386 ****               0 ****  **** 
   2015  MOH          12392 ****               0 ****  **** 
   2016  MOH          12398 ****               0 ****  **** 
   2017  MOH          12404 ****               0 ****  **** 
   2018  MOH          12410 ****               0 ****  **** 
   2019  MOH          12416 ****               0 ****  **** 
   2020  MOH          12422 ****               0 ****  **** 
   2021  MOH          12428 ****               0 ****  **** 
   2022  MOH          12434 ****               0 ****  **** 
   2023  MOH          12440 ****               0 ****  **** 
   2024  MOH          12446 ****               0 ****  **** 
   2025  MOH          12452 ****               0 ****  **** 
   2026  MOH          12458 ****               0 ****  **** 
   2027  MOH          12464 ****               0 ****  **** 
   2028  MOH          12470 ****               0 ****  **** 
   2029  MOH          12476 ****               0 ****  **** 
   2030  MOH          12482 ****               0 ****  **** 
   2031  MOH          12488 ****               0 ****  **** 
   2032  MOH          12494 ****               0 ****  **** 
   2033  MOH          12500 ****               0 ****  **** 
   2034  MOH          12506 ****               0 ****  **** 
   2035  MOH          12512 ****               0 ****  **** 
   2036  MOH          12518 ****               0 ****  **** 
   2037  MOH          12524 ****               0 ****  **** 
   2038  MOH          12530 ****               0 ****  **** 
   2039  MOH          12536 ****               0 ****  **** 
   2040  MOH          12542 ****               0 ****  **** 
   2041  MOH          12548 ****               0 ****  **** 
   2042  MOH          12554 ****               0 ****  **** 
   2043  MOH          12560 ****               0 ****  **** 
   2044  MOH          12566 ****               0 ****  **** 
   2045  MOH          12572 ****               0 ****  **** 
   2046  MOH          12578 ****               0 ****  **** 
   2047  MOH          12584 ****               0 ****  **** 
   2048  MOH          12590 ****               0 ****  **** 
   2049  MOH          12596 ****               0 ****  **** 
   2050  MOH          12602 ****               0 ****  **** 
   2051  MOH          12608 ****               0 ****  **** 
   2052  MOH          12614 ****               0 ****  **** 
   2053  MOH          12620 ****               0 ****  **** 
   2054  MOH          12626 ****               0 ****  **** 
   2055  MOH          12632 ****               0 ****  **** 
   2056  MOH          12638 ****               0 ****  **** 
   2057  MOH          12644 ****               0 ****  **** 
   2058  MOH          12650 ****               0 ****  **** 
   2059  MOH          12656 ****               0 ****  **** 
   2060  MOH          12662 ****               0 ****  **** 
   2061  MOH          12668 ****               0 ****  **** 
   2062  MOH          12674 ****               0 ****  **** 
   2063  MOH          12680 ****               0 ****  **** 
   2064  MOH          12686 ****               0 ****  **** 
   2065  MOH          12692 ****               0 ****  **** 
   2066  MOH          12698 ****               0 ****  **** 
   2067  MOH          12704 ****               0 ****  **** 
   2068  MOH          12710 ****               0 ****  **** 
   2069  MOH          12716 ****               0 ****  **** 
   2070  MOH          12722 ****               0 ****  **** 
   2071  MOH          12728 ****               0 ****  **** 
   2072  MOH          12734 ****               0 ****  **** 
   2073  MOH          12740 ****               0 ****  **** 
   2074  MOH          12746 ****               0 ****  **** 
   2075  MOH          12752 ****               0 ****  **** 
   2076  MOH          12758 ****               0 ****  **** 
   2077  MOH          12764 ****               0 ****  **** 
   2078  MOH          12770 ****               0 ****  **** 
   2079  MOH          12776 ****               0 ****  **** 
   2080  MOH          12782 ****               0 ****  **** 
   2081  MOH          12788 ****               0 ****  **** 
   2082  MOH          12794 ****               0 ****  **** 
   2083  MOH          12800 ****               0 ****  **** 
   2084  MOH          12806 ****               0 ****  **** 
   2085  MOH          12812 ****               0 ****  **** 
   2086  MOH          12818 ****               0 ****  **** 
   2087  MOH          12824 ****               0 ****  **** 
   2088  MOH          12830 ****               0 ****  **** 
   2089  MOH          12836 ****               0 ****  **** 
   2090  MOH          12842 ****               0 ****  **** 
   2091  MOH          12848 ****               0 ****  **** 
   2092  MOH          12854 ****               0 ****  **** 
   2093  MOH          12860 ****               0 ****  **** 
   2094  MOH          12866 ****               0 ****  **** 
   2095  MOH          12872 ****               0 ****  **** 
   2096  MOH          12878 ****               0 ****  **** 
   2097  MOH          12884 ****               0 ****  **** 
   2098  MOH          12890 ****               0 ****  **** 
   2099  MOH          12896 ****               0 ****  **** 
   2100  MOH          12902 ****               0 ****  **** 
   2101  MOH          12908 ****               0 ****  **** 
   2102  MOH          12914 ****               0 ****  **** 
   2103  MOH          12920 ****               0 ****  **** 
   2104  MOH          12926 ****               0 ****  **** 
   2105  MOH          12932 ****               0 ****  **** 
   2106  MOH          12938 ****               0 ****  **** 
   2107  MOH          12944 ****               0 ****  **** 
   2108  MOH          12950 ****               0 ****  **** 
   2109  MOH          12956 ****               0 ****  **** 
   2110  MOH          12962 ****               0 ****  **** 
   2111  MOH          12968 ****               0 ****  **** 
   2112  MOH          12974 ****               0 ****  **** 
   2113  MOH          12980 ****               0 ****  **** 
   2114  MOH          12986 ****               0 ****  **** 
   2115  MOH          12992 ****               0 ****  **** 
   2116  MOH          12998 ****               0 ****  **** 
   2117  MOH          13004 ****               0 ****  **** 
   2118  MOH          13010 ****               0 ****  **** 
   2119  MOH          13016 ****               0 ****  **** 
   2120  MOH          13022 ****               0 ****  **** 
   2121  MOH          13028 ****               0 ****  **** 
   2122  MOH          13034 ****               0 ****  **** 
   2123  MOH          13040 ****               0 ****  **** 
   2124  MOH          13046 ****               0 ****  **** 
   2125  MOH          13052 ****               0 ****  **** 
   2126  MOH          13058 ****               0 ****  **** 
   2127  MOH          13064 ****               0 ****  **** 
   2128  MOH          13070 ****               0 ****  **** 
   2129  MOH          13076 ****               0 ****  **** 
   2130  MOH          13082 ****               0 ****  **** 
   2131  MOH          13088 ****               0 ****  **** 
   2132  MOH          13094 ****               0 ****  **** 
   2133  MOH          13100 ****               0 ****  **** 
   2134  MOH          13106 ****               0 ****  **** 
   2135  MOH          13112 ****               0 ****  **** 
   2136  MOH          13118 ****               0 ****  **** 
   2137  MOH          13124 ****               0 ****  **** 
   2138  MOH          13130 ****               0 ****  **** 
   2139  MOH          13136 ****               0 ****  **** 
   2140  MOH          13142 ****               0 ****  **** 
   2141  MOH          13148 ****               0 ****  **** 
   2142  MOH          13154 ****               0 ****  **** 
   2143  MOH          13160 ****               0 ****  **** 
   2144  MOH          13166 ****               0 ****  **** 
   2145  MOH          13172 ****               0 ****  **** 
   2146  MOH          13178 ****               0 ****  **** 
   2147  MOH          13184 ****               0 ****  **** 
   2148  MOH          13190 ****               0 ****  **** 
   2149  MOH          13196 ****               0 ****  **** 
   2150  MOH          13202 ****               0 ****  **** 
   2151  MOH          13208 ****               0 ****  **** 
   2152  MOH          13214 ****               0 ****  **** 
   2153  MOH          13220 ****               0 ****  **** 
   2154  MOH          13226 ****               0 ****  **** 
   2155  MOH          13232 ****               0 ****  **** 
   2156  MOH          13238 ****               0 ****  **** 
   2157  MOH          13244 ****               0 ****  **** 
   2158  MOH          13250 ****               0 ****  **** 
   2159  MOH          13256 ****               0 ****  **** 
   2160  MOH          13262 ****               0 ****  **** 
   2161  MOH          13268 ****               0 ****  **** 
   2162  MOH          13274 ****               0 ****  **** 
   2163  MOH          13280 ****               0 ****  **** 
   2164  MOH          13286 ****               0 ****  **** 
   2165  MOH          13292 ****               0 ****  **** 
   2166  MOH          13298 ****               0 ****  **** 
   2167  MOH          13304 ****               0 ****  **** 
   2168  MOH          13310 ****               0 ****  **** 
   2169  MOH          13316 ****               0 ****  **** 
   2170  MOH          13322 ****               0 ****  **** 
   2171  MOH          13328 ****               0 ****  **** 
   2172  MOH          13334 ****               0 ****  **** 
   2173  MOH          13340 ****               0 ****  **** 
   2174  MOH          13346 ****               0 ****  **** 
   2175  MOH          13352 ****               0 ****  **** 
   2176  MOH          13358 ****               0 ****  **** 
   2177  MOH          13364 ****               0 ****  **** 
   2178  MOH          13370 ****               0 ****  **** 
   2179  MOH          13376 ****               0 ****  **** 
   2180  MOH          13382 ****               0 ****  **** 
   2181  MOH          13388 ****               0 ****  **** 
   2182  MOH          13394 ****               0 ****  **** 
   2183  MOH          13400 ****               0 ****  **** 
   2184  MOH          13406 ****               0 ****  **** 
   2185  MOH          13412 ****               0 ****  **** 
   2186  MOH          13418 ****               0 ****  **** 
   2187  MOH          13424 ****               0 ****  **** 
   2188  MOH          13430 ****               0 ****  **** 
   2189  MOH          13436 ****               0 ****  **** 
   2190  MOH          13442 ****               0 ****  **** 
   2191  MOH          13448 ****               0 ****  **** 
   2192  MOH          13454 ****               0 ****  **** 
   2193  MOH          13460 ****               0 ****  **** 
   2194  MOH          13466 ****               0 ****  **** 
   2195  MOH          13472 ****               0 ****  **** 
   2196  MOH          13478 ****               0 ****  **** 
   2197  MOH          13484 ****               0 ****  **** 
   2198  MOH          13490 ****               0 ****  **** 
   2199  MOH          13496 ****               0 ****  **** 
   2200  MOH          13502 ****               0 ****  **** 
   2201  MOH          13508 ****               0 ****  **** 
   2202  MOH          13514 ****               0 ****  **** 
   2203  MOH          13520 ****               0 ****  **** 
   2204  MOH          13526 ****               0 ****  **** 
   2205  MOH          13532 ****               0 ****  **** 
   2206  MOH          13538 ****               0 ****  **** 
   2207  MOH          13544 ****               0 ****  **** 
   2208  MOH          13550 ****               0 ****  **** 
   2209  MOH          13556 ****               0 ****  **** 
   2210  MOH          13562 ****               0 ****  **** 
   2211  MOH          13568 ****               0 ****  **** 
   2212  MOH          13574 ****               0 ****  **** 
   2213  MOH          13580 ****               0 ****  **** 
   2214  MOH          13586 ****               0 ****  **** 
   2215  MOH          13592 ****               0 ****  **** 
   2216  MOH          13598 ****               0 ****  **** 
   2217  MOH          13604 ****               0 ****  **** 
   2218  MOH          13610 ****               0 ****  **** 
   2219  MOH          13616 ****               0 ****  **** 
   2220  MOH          13622 ****               0 ****  **** 
   2221  MOH          13628 ****               0 ****  **** 
   2222  MOH          13634 ****               0 ****  **** 
   2223  MOH          13640 ****               0 ****  **** 
   2224  MOH          13646 ****               0 ****  **** 
   2225  MOH          13652 ****               0 ****  **** 
   2226  MOH          13658 ****               0 ****  **** 
   2227  MOH          13664 ****               0 ****  **** 
   2228  MOH          13670 ****               0 ****  **** 
   2229  MOH          13676 ****               0 ****  **** 
   2230  MOH          13682 ****               0 ****  **** 
   2231  MOH          13688 ****               0 ****  **** 
   2232  MOH          13694 ****               0 ****  **** 
   2233  MOH          13700 ****               0 ****  **** 
   2234  MOH          13706 ****               0 ****  **** 
   2235  MOH          13712 ****               0 ****  **** 
   2236  MOH          13718 ****               0 ****  **** 
   2237  MOH          13724 ****               0 ****  **** 
   2238  MOH          13730 ****               0 ****  **** 
   2239  MOH          13736 ****               0 ****  **** 
   2240  MOH          13742 ****               0 ****  **** 
   2241  MOH          13748 ****               0 ****  **** 
   2242  MOH          13754 ****               0 ****  **** 
   2243  MOH          13760 ****               0 ****  **** 
   2244  MOH          13766 ****               0 ****  **** 
   2245  MOH          13772 ****               0 ****  **** 
   2246  MOH          13778 ****               0 ****  **** 
   2247  MOH          13784 ****               0 ****  **** 
   2248  MOH          13790 ****               0 ****  **** 
   2249  MOH          13796 ****               0 ****  **** 
   2250  MOH          13802 ****               0 ****  **** 
   2251  MOH          13808 ****               0 ****  **** 
   2252  MOH          13814 ****               0 ****  **** 
   2253  MOH          13820 ****               0 ****  **** 
   2254  MOH          13826 ****               0 ****  **** 
   2255  MOH          13832 ****               0 ****  **** 
   2256  MOH          13838 ****               0 ****  **** 
   2257  MOH          13844 ****               0 ****  **** 
   2258  MOH          13850 ****               0 ****  **** 
   2259  MOH          13856 ****               0 ****  **** 
   2260  MOH          13862 ****               0 ****  **** 
   2261  MOH          13868 ****               0 ****  **** 
   2262  MOH          13874 ****               0 ****  **** 
   2263  MOH          13880 ****               0 ****  **** 
   2264  MOH          13886 ****               0 ****  **** 
   2265  MOH          13892 ****               0 ****  **** 
   2266  MOH          13898 ****               0 ****  **** 
   2267  MOH          13904 ****               0 ****  **** 
   2268  MOH          13910 ****               0 ****  **** 
   2269  MOH          13916 ****               0 ****  **** 
   2270  MOH          13922 ****               0 ****  **** 
   2271  MOH          13928 ****               0 ****  **** 
   2272  MOH          13934 ****               0 ****  **** 
   2273  MOH          13940 ****               0 ****  **** 
   2274  MOH          13946 ****               0 ****  **** 
   2275  MOH          13952 ****               0 ****  **** 
   2276  MOH          13958 ****               0 ****  **** 
   2277  MOH          13964 ****               0 ****  **** 
   2278  MOH          13970 ****               0 ****  **** 
   2279  MOH          13976 ****               0 ****  **** 
   2280  MOH          13982 ****               0 ****  **** 
   2281  MOH          13988 ****               0 ****  **** 
   2282  MOH          13994 ****               0 ****  **** 
   2283  MOH          14000 ****               0 ****  **** 
   2284  MOH          14006 ****               0 ****  **** 
   2285  MOH          14012 ****               0 ****  **** 
   2286  MOH          14018 ****               0 ****  **** 
   2287  MOH          14024 ****               0 ****  **** 
   2288  MOH          14030 ****               0 ****  **** 
   2289  MOH          14036 ****               0 ****  **** 
   2290  MOH          14042 ****               0 ****  **** 
   2291  MOH          14048 ****               0 ****  **** 
   2292  MOH          14054 ****               0 ****  **** 
   2293  MOH          14060 ****               0 ****  **** 
   2294  MOH          14066 ****               0 ****  **** 
   2295  MOH          14072 ****               0 ****  **** 
   2296  MOH          14078 ****               0 ****  **** 
   2297  MOH          14084 ****               0 ****  **** 
   2298  MOH          14090 ****               0 ****  **** 
   2299  MOH          14096 ****               0 ****  **** 
   2300  MOH          14102 ****               0 ****  **** 
   2301  MOH          14108 ****               0 ****  **** 
   2302  MOH          14114 ****               0 ****  **** 
   2303  MOH          14120 ****               0 ****  **** 
   2304  MOH          14126 ****               0 ****  **** 
   2305  MOH          14132 ****               0 ****  **** 
   2306  MOH          14138 ****               0 ****  **** 
   2307  MOH          14144 ****               0 ****  **** 
   2308  MOH          14150 ****               0 ****  **** 
   2309  MOH          14156 ****               0 ****  **** 
   2310  MOH          14162 ****               0 ****  **** 
   2311  MOH          14168 ****               0 ****  **** 
   2312  MOH          14174 ****               0 ****  **** 
   2313  MOH          14180 ****               0 ****  **** 
   2314  MOH          14186 ****               0 ****  **** 
   2315  MOH          14192 ****               0 ****  **** 
   2316  MOH          14198 ****               0 ****  **** 
   2317  MOH          14204 ****               0 ****  **** 
   2318  MOH          14210 ****               0 ****  **** 
   2319  MOH          14216 ****               0 ****  **** 
   2320  MOH          14222 ****               0 ****  **** 
   2321  MOH          14228 ****               0 ****  **** 
   2322  MOH          14234 ****               0 ****  **** 
   2323  MOH          14240 ****               0 ****  **** 
   2324  MOH          14246 ****               0 ****  **** 
   2325  MOH          14252 ****               0 ****  **** 
   2326  MOH          14258 ****               0 ****  **** 
   2327  MOH          14264 ****               0 ****  **** 
   2328  MOH          14270 ****               0 ****  **** 
   2329  MOH          14276 ****               0 ****  **** 
   2330  MOH          14282 ****               0 ****  **** 
   2331  MOH          14288 ****               0 ****  **** 
   2332  MOH          14294 ****               0 ****  **** 
   2333  MOH          14300 ****               0 ****  **** 
   2334  MOH          14306 ****               0 ****  **** 
   2335  MOH          14312 ****               0 ****  **** 
   2336  MOH          14318 ****               0 ****  **** 
   2337  MOH          14324 ****               0 ****  **** 
   2338  MOH          14330 ****               0 ****  **** 
   2339  MOH          14336 ****               0 ****  **** 
   2340  MOH          14342 ****               0 ****  **** 
   2341  MOH          14348 ****               0 ****  **** 
   2342  MOH          14354 ****               0 ****  **** 
   2343  MOH          14360 ****               0 ****  **** 
   2344  MOH          14366 ****               0 ****  **** 
   2345  MOH          14372 ****               0 ****  **** 
   2346  MOH          14378 ****               0 ****  **** 
   2347  MOH          14384 ****               0 ****  **** 
   2348  MOH          14390 ****               0 ****  **** 
   2349  MOH          14396 ****               0 ****  **** 
   2350  MOH          14402 ****               0 ****  **** 
   2351  MOH          14408 ****               0 ****  **** 
   2352  MOH          14414 ****               0 ****  **** 
   2353  MOH          14420 ****               0 ****  **** 
   2354  MOH          14426 ****               0 ****  **** 
   2355  MOH          14432 ****               0 ****  **** 
   2356  MOH          14438 ****               0 ****  **** 
   2357  MOH          14444 ****               0 ****  **** 
   2358  MOH          14450 ****               0 ****  **** 
   2359  MOH          14456 ****               0 ****  **** 
   2360  MOH          14462 ****               0 ****  **** 
   2361  MOH          14468 ****               0 ****  **** 
   2362  MOH          14474 ****               0 ****  **** 
   2363  MOH          14480 ****               0 ****  **** 
   2364  MOH          14486 ****               0 ****  **** 
   2365  MOH          14492 ****               0 ****  **** 
   2366  MOH          14498 ****               0 ****  **** 
   2367  MOH          14504 ****               0 ****  **** 
   2368  MOH          14510 ****               0 ****  **** 
   2369  MOH          14516 ****               0 ****  **** 
   2370  MOH          14522 ****               0 ****  **** 
   2371  MOH          14528 ****               0 ****  **** 
   2372  MOH          14534 ****               0 ****  **** 
   2373  MOH          14540 ****               0 ****  **** 
   2374  MOH          14546 ****               0 ****  **** 
   2375  MOH          14552 ****               0 ****  **** 
   2376  MOH          14558 ****               0 ****  **** 
   2377  MOH          14564 ****               0 ****  **** 
   2378  MOH          14570 ****               0 ****  **** 
   2379  MOH          14576 ****               0 ****  **** 
   2380  MOH          14582 ****               0 ****  **** 
   2381  MOH          14588 ****               0 ****  **** 
   2382  MOH          14594 ****               0 ****  **** 
   2383  MOH          14600 ****               0 ****  **** 
   2384  MOH          14606 ****               0 ****  **** 
   2385  MOH          14612 ****               0 ****  **** 
   2386  MOH          14618 ****               0 ****  **** 
   2387  MOH          14624 ****               0 ****  **** 
   2388  MOH          14630 ****               0 ****  **** 
   2389  MOH          14636 ****               0 ****  **** 
   2390  MOH          14642 ****               0 ****  **** 
   2391  MOH          14648 ****               0 ****  **** 
   2392  MOH          14654 ****               0 ****  **** 
   2393  MOH          14660 ****               0 ****  **** 
   2394  MOH          14666 ****               0 ****  **** 
   2395  MOH          14672 ****               0 ****  **** 
   2396  MOH          14678 ****               0 ****  **** 
   2397  MOH          14684 ****               0 ****  **** 
   2398  MOH          14690 ****               0 ****  **** 
   2399  MOH          14696 ****               0 ****  **** 
   2400  MOH          14702 ****               0 ****  **** 
   2401  MOH          14708 ****               0 ****  **** 
   2402  MOH          14714 ****               0 ****  **** 
   2403  MOH          14720 ****               0 ****  **** 
   2404  MOH          14726 ****               0 ****  **** 
   2405  MOH          14732 ****               0 ****  **** 
   2406  MOH          14738 ****               0 ****  **** 
   2407  MOH          14744 ****               0 ****  **** 
   2408  MOH          14750 ****               0 ****  **** 
   2409  MOH          14756 ****               0 ****  **** 
   2410  MOH          14762 ****               0 ****  **** 
   2411  MOH          14768 ****               0 ****  **** 
   2412  MOH          14774 ****               0 ****  **** 
   2413  MOH          14780 ****               0 ****  **** 
   2414  MOH          14786 ****               0 ****  **** 
   2415  MOH          14792 ****               0 ****  **** 
   2416  MOH          14798 ****               0 ****  **** 
   2417  MOH          14804 ****               0 ****  **** 
   2418  MOH          14810 ****               0 ****  **** 
   2419  MOH          14816 ****               0 ****  **** 
   2420  MOH          14822 ****               0 ****  **** 
   2421  MOH          14828 ****               0 ****  **** 
   2422  MOH          14834 ****               0 ****  **** 
   2423  MOH          14840 ****               0 ****  **** 
   2424  MOH          14846 ****               0 ****  **** 
   2425  MOH          14852 ****               0 ****  **** 
   2426  MOH          14858 ****               0 ****  **** 
   2427  MOH          14864 ****               0 ****  **** 
   2428  MOH          14870 ****               0 ****  **** 
   2429  MOH          14876 ****               0 ****  **** 
   2430  MOH          14882 ****               0 ****  **** 
   2431  MOH          14888 ****               0 ****  **** 
   2432  MOH          14894 ****               0 ****  **** 
   2433  MOH          14900 ****               0 ****  **** 
   2434  MOH          14906 ****               0 ****  **** 
   2435  MOH          14912 ****               0 ****  **** 
   2436  MOH          14918 ****               0 ****  **** 
   2437  MOH          14924 ****               0 ****  **** 
   2438  MOH          14930 ****               0 ****  **** 
   2439  MOH          14936 ****               0 ****  **** 
   2440  MOH          14942 ****               0 ****  **** 
   2441  MOH          14948 ****               0 ****  **** 
   2442  MOH          14954 ****               0 ****  **** 
   2443  MOH          14960 ****               0 ****  **** 
   2444  MOH          14966 ****               0 ****  **** 
   2445  MOH          14972 ****               0 ****  **** 
   2446  MOH          14978 ****               0 ****  **** 
   2447  MOH          14984 ****               0 ****  **** 
   2448  MOH          14990 ****               0 ****  **** 
   2449  MOH          14996 ****               0 ****  **** 
   2450  MOH          15002 ****               0 ****  **** 
   2451  MOH          15008 ****               0 ****  **** 
   2452  MOH          15014 ****               0 ****  **** 
   2453  MOH          15020 ****               0 ****  **** 
   2454  MOH          15026 ****               0 ****  **** 
   2455  MOH          15032 ****               0 ****  **** 
   2456  MOH          15038 ****               0 ****  **** 
   2457  MOH          15044 ****               0 ****  **** 
   2458  MOH          15050 ****               0 ****  **** 
   2459  MOH          15056 ****               0 ****  **** 
   2460  MOH          15062 ****               0 ****  **** 
   2461  MOH          15068 ****               0 ****  **** 
   2462  MOH          15074 ****               0 ****  **** 
   2463  MOH          15080 ****               0 ****  **** 
   2464  MOH          15086 ****               0 ****  **** 
   2465  MOH          15092 ****               0 ****  **** 
   2466  MOH          15098 ****               0 ****  **** 
   2467  MOH          15104 ****               0 ****  **** 
   2468  MOH          15110 ****               0 ****  **** 
   2469  MOH          15116 ****               0 ****  **** 
   2470  MOH          15122 ****               0 ****  **** 
   2471  MOH          15128 ****               0 ****  **** 
   2472  MOH          15134 ****               0 ****  **** 
   2473  MOH          15140 ****               0 ****  **** 
   2474  MOH          15146 ****               0 ****  **** 
   2475  MOH          15152 ****               0 ****  **** 
   2476  MOH          15158 ****               0 ****  **** 
   2477  MOH          15164 ****               0 ****  **** 
   2478  MOH          15170 ****               0 ****  **** 
   2479  MOH          15176 ****               0 ****  **** 
   2480  MOH          15182 ****               0 ****  **** 
   2481  MOH          15188 ****               0 ****  **** 
   2482  MOH          15194 ****               0 ****  **** 
